<?xml version="1.0" encoding="UTF-8"?>

<!-- generated on 2022-02-15 11:19:07 by Eclipse SUMO netedit Version 1.11.0
<configuration xmlns:xsi="http://www.w3.org/2001/XMLSchema-instance" xsi:noNamespaceSchemaLocation="http://sumo.dlr.de/xsd/netconvertConfiguration.xsd">

    <input>
        <sumo-net-file value="C:\Users\Nathan\Sumo\2022-02-08-01-23-27\osm.net.xml"/>
    </input>

    <output>
        <output-file value="C:\Users\Nathan\Sumo\2022-02-08-01-23-27\osm.net.xml"/>
        <output.street-names value="true"/>
    </output>

    <processing>
        <geometry.min-radius.fix.railways value="false"/>
        <geometry.max-grade.fix value="false"/>
        <offset.disable-normalization value="true"/>
        <lefthand value="false"/>
    </processing>

    <junctions>
        <no-turnarounds value="true"/>
        <junctions.corner-detail value="5"/>
        <junctions.limit-turn-speed value="5.5"/>
        <rectangular-lane-cut value="false"/>
    </junctions>

    <pedestrian>
        <walkingareas value="false"/>
    </pedestrian>

    <report>
        <aggregate-warnings value="5"/>
    </report>

</configuration>
-->

<net version="1.9" junctionCornerDetail="5" limitTurnSpeed="5.50" xmlns:xsi="http://www.w3.org/2001/XMLSchema-instance" xsi:noNamespaceSchemaLocation="http://sumo.dlr.de/xsd/net_file.xsd">

    <location netOffset="-427547.61,-5092153.53" convBoundary="0.00,0.00,2101.77,2481.76" origBoundary="-123.935514,45.901133,-123.713558,46.015595" projParameter="+proj=utm +zone=10 +ellps=WGS84 +datum=WGS84 +units=m +no_defs"/>

    <type id="highway.bridleway" priority="1" numLanes="1" speed="2.78" allow="pedestrian" oneway="1" width="2.00"/>
    <type id="highway.bus_guideway" priority="1" numLanes="1" speed="27.78" allow="bus" oneway="1"/>
    <type id="highway.cycleway" priority="1" numLanes="1" speed="8.33" allow="bicycle" oneway="0" width="1.00"/>
    <type id="highway.footway" priority="1" numLanes="1" speed="2.78" allow="pedestrian" oneway="1" width="2.00"/>
    <type id="highway.ford" priority="1" numLanes="1" speed="2.78" allow="army" oneway="0"/>
    <type id="highway.living_street" priority="2" numLanes="1" speed="2.78" disallow="tram rail_urban rail rail_electric rail_fast ship" oneway="0"/>
    <type id="highway.motorway" priority="14" numLanes="2" speed="39.44" allow="private emergency authority army vip passenger hov taxi bus coach delivery truck trailer motorcycle evehicle custom1 custom2" oneway="1"/>
    <type id="highway.motorway_link" priority="9" numLanes="1" speed="22.22" allow="private emergency authority army vip passenger hov taxi bus coach delivery truck trailer motorcycle evehicle custom1 custom2" oneway="1"/>
    <type id="highway.path" priority="1" numLanes="1" speed="2.78" allow="pedestrian bicycle" oneway="0" width="2.00"/>
    <type id="highway.pedestrian" priority="1" numLanes="1" speed="2.78" allow="pedestrian" oneway="1" width="2.00"/>
    <type id="highway.primary" priority="12" numLanes="2" speed="27.78" disallow="tram rail_urban rail rail_electric rail_fast ship" oneway="0"/>
    <type id="highway.primary_link" priority="7" numLanes="1" speed="22.22" disallow="tram rail_urban rail rail_electric rail_fast ship" oneway="0"/>
    <type id="highway.raceway" priority="15" numLanes="2" speed="83.33" allow="vip" oneway="0"/>
    <type id="highway.residential" priority="3" numLanes="1" speed="13.89" disallow="tram rail_urban rail rail_electric rail_fast ship" oneway="0"/>
    <type id="highway.secondary" priority="11" numLanes="1" speed="27.78" disallow="tram rail_urban rail rail_electric rail_fast ship" oneway="0"/>
    <type id="highway.secondary_link" priority="6" numLanes="1" speed="22.22" disallow="tram rail_urban rail rail_electric rail_fast ship" oneway="0"/>
    <type id="highway.service" priority="1" numLanes="1" speed="5.56" allow="pedestrian delivery bicycle" oneway="0"/>
    <type id="highway.stairs" priority="1" numLanes="1" speed="1.39" allow="pedestrian" oneway="1" width="2.00"/>
    <type id="highway.step" priority="1" numLanes="1" speed="1.39" allow="pedestrian" oneway="1" width="2.00"/>
    <type id="highway.steps" priority="1" numLanes="1" speed="1.39" allow="pedestrian" oneway="1" width="2.00"/>
    <type id="highway.tertiary" priority="10" numLanes="1" speed="22.22" disallow="tram rail_urban rail rail_electric rail_fast ship" oneway="0"/>
    <type id="highway.tertiary_link" priority="5" numLanes="1" speed="22.22" disallow="tram rail_urban rail rail_electric rail_fast ship" oneway="0"/>
    <type id="highway.track" priority="1" numLanes="1" speed="5.56" allow="pedestrian motorcycle moped bicycle" oneway="0"/>
    <type id="highway.trunk" priority="13" numLanes="2" speed="27.78" disallow="pedestrian bicycle tram rail_urban rail rail_electric rail_fast ship" oneway="0"/>
    <type id="highway.trunk_link" priority="8" numLanes="1" speed="22.22" disallow="pedestrian bicycle tram rail_urban rail rail_electric rail_fast ship" oneway="0"/>
    <type id="highway.unclassified" priority="4" numLanes="1" speed="13.89" disallow="tram rail_urban rail rail_electric rail_fast ship" oneway="0"/>
    <type id="highway.unsurfaced" priority="1" numLanes="1" speed="8.33" disallow="tram rail_urban rail rail_electric rail_fast ship" oneway="0"/>
    <type id="railway.highspeed" priority="21" numLanes="1" speed="69.44" allow="rail_fast" oneway="1"/>
    <type id="railway.light_rail" priority="19" numLanes="1" speed="27.78" allow="rail_urban" oneway="1"/>
    <type id="railway.preserved" priority="16" numLanes="1" speed="27.78" allow="rail" oneway="1"/>
    <type id="railway.rail" priority="20" numLanes="1" speed="44.44" allow="rail" oneway="1"/>
    <type id="railway.subway" priority="18" numLanes="1" speed="27.78" allow="rail_urban" oneway="1"/>
    <type id="railway.tram" priority="17" numLanes="1" speed="13.89" allow="tram" oneway="1"/>

    <edge id=":1311354486_0" function="internal">
        <lane id=":1311354486_0_0" index="0" disallow="tram rail_urban rail rail_electric rail_fast ship" speed="3.65" length="4.67" shape="2096.98,380.77 2097.76,379.55 2098.55,379.14 2099.36,379.53 2100.18,380.71"/>
    </edge>
    <edge id=":2531286653_0" function="internal">
        <lane id=":2531286653_0_0" index="0" allow="pedestrian delivery bicycle" speed="3.65" length="4.67" shape="611.22,406.16 612.47,405.43 613.36,405.42 613.90,406.13 614.10,407.56"/>
    </edge>
    <edge id=":2531286665_0" function="internal">
        <lane id=":2531286665_0_0" index="0" disallow="tram rail_urban rail rail_electric rail_fast ship" speed="13.89" length="9.41" shape="570.22,442.29 567.62,433.24"/>
    </edge>
    <edge id=":2531286665_1" function="internal">
        <lane id=":2531286665_1_0" index="0" allow="pedestrian delivery bicycle" speed="6.81" length="5.24" shape="570.22,442.29 569.82,439.42 570.46,437.17"/>
    </edge>
    <edge id=":2531286665_7" function="internal">
        <lane id=":2531286665_7_0" index="0" allow="pedestrian delivery bicycle" speed="6.81" length="5.24" shape="570.46,437.17 572.14,435.53 574.85,434.51"/>
    </edge>
    <edge id=":2531286665_2" function="internal">
        <lane id=":2531286665_2_0" index="0" allow="pedestrian delivery bicycle" speed="4.98" length="5.08" shape="575.54,437.64 574.22,438.13 573.41,438.92 573.10,440.02 573.29,441.41"/>
    </edge>
    <edge id=":2531286665_3" function="internal">
        <lane id=":2531286665_3_0" index="0" allow="pedestrian delivery bicycle" speed="7.03" length="10.19" shape="575.54,437.64 572.69,437.88 570.43,437.23 568.74,435.68 567.62,433.24"/>
    </edge>
    <edge id=":2531286665_4" function="internal">
        <lane id=":2531286665_4_0" index="0" allow="pedestrian delivery bicycle" speed="3.65" length="4.67" shape="575.54,437.64 574.19,437.11 573.63,436.42 573.85,435.55 574.85,434.51"/>
    </edge>
    <edge id=":2531286665_5" function="internal">
        <lane id=":2531286665_5_0" index="0" allow="pedestrian delivery bicycle" speed="5.25" length="5.26" shape="570.70,432.36 571.27,433.57 572.15,434.34 573.34,434.65 574.85,434.51"/>
    </edge>
    <edge id=":2531286665_6" function="internal">
        <lane id=":2531286665_6_0" index="0" disallow="tram rail_urban rail rail_electric rail_fast ship" speed="13.89" length="9.41" shape="570.70,432.36 573.29,441.41"/>
    </edge>
    <edge id=":2531489066_0" function="internal">
        <lane id=":2531489066_0_0" index="0" allow="pedestrian delivery bicycle" speed="5.02" length="5.03" shape="380.63,902.54 380.17,901.23 379.40,900.40 378.33,900.04 376.95,900.14"/>
    </edge>
    <edge id=":2531489066_1" function="internal">
        <lane id=":2531489066_1_0" index="0" disallow="tram rail_urban rail rail_electric rail_fast ship" speed="13.89" length="9.40" shape="380.63,902.54 378.78,893.32"/>
    </edge>
    <edge id=":2531489066_2" function="internal">
        <lane id=":2531489066_2_0" index="0" disallow="tram rail_urban rail rail_electric rail_fast ship" speed="13.89" length="9.40" shape="381.92,892.69 383.76,901.91"/>
    </edge>
    <edge id=":2531489066_3" function="internal">
        <lane id=":2531489066_3_0" index="0" allow="pedestrian delivery bicycle" speed="6.92" length="5.04" shape="381.92,892.69 382.07,895.43 381.29,897.59"/>
    </edge>
    <edge id=":2531489066_7" function="internal">
        <lane id=":2531489066_7_0" index="0" allow="pedestrian delivery bicycle" speed="6.92" length="5.13" shape="381.29,897.59 379.58,899.16 376.95,900.14"/>
    </edge>
    <edge id=":2531489066_4" function="internal">
        <lane id=":2531489066_4_0" index="0" allow="pedestrian delivery bicycle" speed="5.12" length="5.09" shape="376.25,897.02 377.58,896.53 378.45,895.74 378.85,894.67 378.78,893.32"/>
    </edge>
    <edge id=":2531489066_5" function="internal">
        <lane id=":2531489066_5_0" index="0" allow="pedestrian delivery bicycle" speed="6.84" length="10.28" shape="376.25,897.02 379.07,896.80 381.26,897.54 382.82,899.25 383.76,901.91"/>
    </edge>
    <edge id=":2531489066_6" function="internal">
        <lane id=":2531489066_6_0" index="0" allow="pedestrian delivery bicycle" speed="3.65" length="4.67" shape="376.25,897.02 377.60,897.54 378.16,898.23 377.95,899.10 376.95,900.14"/>
    </edge>
    <edge id=":2531489068_0" function="internal">
        <lane id=":2531489068_0_0" index="0" allow="pedestrian delivery bicycle" speed="3.65" length="4.67" shape="505.18,1356.96 506.51,1357.51 507.06,1358.22 506.82,1359.08 505.80,1360.10"/>
    </edge>
    <edge id=":2531489077_0" function="internal">
        <lane id=":2531489077_0_0" index="0" disallow="tram rail_urban rail rail_electric rail_fast ship" speed="8.94" length="7.89" shape="827.99,1447.83 825.77,1448.56 824.23,1449.01 822.68,1449.39 820.40,1449.93"/>
    </edge>
    <edge id=":2531489077_1" function="internal">
        <lane id=":2531489077_1_0" index="0" allow="pedestrian delivery bicycle" speed="6.35" length="3.99" shape="827.99,1447.83 825.90,1448.09 824.18,1447.33"/>
    </edge>
    <edge id=":2531489077_7" function="internal">
        <lane id=":2531489077_7_0" index="0" allow="pedestrian delivery bicycle" speed="6.35" length="5.18" shape="824.18,1447.33 822.84,1445.55 821.89,1442.75"/>
    </edge>
    <edge id=":2531489077_2" function="internal">
        <lane id=":2531489077_2_0" index="0" allow="pedestrian delivery bicycle" speed="4.36" length="3.73" shape="825.01,1442.03 825.41,1443.40 825.87,1444.31 826.39,1444.78 826.98,1444.80"/>
    </edge>
    <edge id=":2531489077_3" function="internal">
        <lane id=":2531489077_3_0" index="0" allow="pedestrian delivery bicycle" speed="6.95" length="10.41" shape="825.01,1442.03 825.28,1444.94 824.60,1447.23 822.97,1448.89 820.40,1449.93"/>
    </edge>
    <edge id=":2531489077_4" function="internal">
        <lane id=":2531489077_4_0" index="0" allow="pedestrian delivery bicycle" speed="3.65" length="4.67" shape="825.01,1442.03 824.50,1443.38 823.81,1443.95 822.94,1443.74 821.89,1442.75"/>
    </edge>
    <edge id=":2531489077_5" function="internal">
        <lane id=":2531489077_5_0" index="0" allow="pedestrian delivery bicycle" speed="5.16" length="5.27" shape="819.66,1446.82 820.92,1446.29 821.72,1445.44 822.04,1444.26 821.89,1442.75"/>
    </edge>
    <edge id=":2531489077_6" function="internal">
        <lane id=":2531489077_6_0" index="0" disallow="tram rail_urban rail rail_electric rail_fast ship" speed="8.94" length="7.60" shape="819.66,1446.82 821.85,1446.30 823.35,1445.93 824.83,1445.50 826.98,1444.80"/>
    </edge>
    <edge id=":2531489078_0" function="internal">
        <lane id=":2531489078_0_0" index="0" allow="pedestrian delivery bicycle" speed="3.65" length="4.67" shape="435.88,1258.21 435.32,1259.54 434.61,1260.08 433.75,1259.84 432.74,1258.81"/>
    </edge>
    <edge id=":2531489079_0" function="internal">
        <lane id=":2531489079_0_0" index="0" disallow="tram rail_urban rail rail_electric rail_fast ship" speed="13.89" length="9.59" shape="498.70,1698.19 489.11,1698.30"/>
    </edge>
    <edge id=":2531489079_1" function="internal">
        <lane id=":2531489079_1_0" index="0" allow="pedestrian delivery bicycle" speed="7.01" length="5.02" shape="498.70,1698.19 496.01,1697.87 494.02,1696.71"/>
    </edge>
    <edge id=":2531489079_7" function="internal">
        <lane id=":2531489079_7_0" index="0" allow="pedestrian delivery bicycle" speed="7.01" length="5.26" shape="494.02,1696.71 492.72,1694.72 492.13,1691.89"/>
    </edge>
    <edge id=":2531489079_2" function="internal">
        <lane id=":2531489079_2_0" index="0" allow="pedestrian delivery bicycle" speed="5.24" length="5.29" shape="495.32,1691.65 495.62,1693.15 496.27,1694.20 497.26,1694.82 498.61,1694.99"/>
    </edge>
    <edge id=":2531489079_3" function="internal">
        <lane id=":2531489079_3_0" index="0" allow="pedestrian delivery bicycle" speed="6.80" length="10.58" shape="495.32,1691.65 495.12,1694.57 494.02,1696.66 492.02,1697.90 489.11,1698.30"/>
    </edge>
    <edge id=":2531489079_4" function="internal">
        <lane id=":2531489079_4_0" index="0" allow="pedestrian delivery bicycle" speed="3.65" length="4.67" shape="495.32,1691.65 494.61,1692.90 493.84,1693.36 493.01,1693.03 492.13,1691.89"/>
    </edge>
    <edge id=":2531489079_5" function="internal">
        <lane id=":2531489079_5_0" index="0" allow="pedestrian delivery bicycle" speed="4.96" length="5.10" shape="489.13,1695.10 490.54,1694.91 491.50,1694.31 492.03,1693.30 492.13,1691.89"/>
    </edge>
    <edge id=":2531489079_6" function="internal">
        <lane id=":2531489079_6_0" index="0" disallow="tram rail_urban rail rail_electric rail_fast ship" speed="13.89" length="9.47" shape="489.13,1695.10 498.61,1694.99"/>
    </edge>
    <edge id=":2531489080_0" function="internal">
        <lane id=":2531489080_0_0" index="0" allow="pedestrian delivery bicycle" speed="4.89" length="4.63" shape="724.45,1458.85 724.28,1457.49 723.79,1456.52 722.97,1455.93 721.83,1455.74"/>
    </edge>
    <edge id=":2531489080_1" function="internal">
        <lane id=":2531489080_1_0" index="0" allow="pedestrian delivery bicycle" speed="6.86" length="10.17" shape="724.45,1458.85 724.84,1456.09 726.02,1454.12 727.99,1452.93 730.75,1452.54"/>
    </edge>
    <edge id=":2531489080_2" function="internal">
        <lane id=":2531489080_2_0" index="0" allow="pedestrian delivery bicycle" speed="3.65" length="4.67" shape="724.45,1458.85 725.25,1457.65 726.05,1457.25 726.85,1457.64 727.65,1458.84"/>
    </edge>
    <edge id=":2531489080_3" function="internal">
        <lane id=":2531489080_3_0" index="0" allow="pedestrian delivery bicycle" speed="5.04" length="5.00" shape="730.75,1455.74 729.39,1455.93 728.42,1456.52 727.84,1457.49 727.65,1458.84"/>
    </edge>
    <edge id=":2531489080_4" function="internal">
        <lane id=":2531489080_4_0" index="0" disallow="tram rail_urban rail rail_electric rail_fast ship" speed="8.94" length="8.92" shape="730.75,1455.74 721.83,1455.74"/>
    </edge>
    <edge id=":2531489080_5" function="internal">
        <lane id=":2531489080_5_0" index="0" disallow="tram rail_urban rail rail_electric rail_fast ship" speed="8.94" length="8.92" shape="721.83,1452.54 730.75,1452.54"/>
    </edge>
    <edge id=":2531489080_6" function="internal">
        <lane id=":2531489080_6_0" index="0" allow="pedestrian delivery bicycle" speed="6.75" length="4.74" shape="721.83,1452.54 724.37,1452.93 726.19,1454.12"/>
    </edge>
    <edge id=":2531489080_7" function="internal">
        <lane id=":2531489080_7_0" index="0" allow="pedestrian delivery bicycle" speed="6.75" length="5.03" shape="726.19,1454.12 727.28,1456.09 727.65,1458.84"/>
    </edge>
    <edge id=":2531489088_0" function="internal">
        <lane id=":2531489088_0_0" index="0" allow="pedestrian delivery bicycle" speed="5.04" length="5.00" shape="581.28,1494.79 581.07,1493.44 580.48,1492.47 579.50,1491.90 578.15,1491.72"/>
    </edge>
    <edge id=":2531489088_1" function="internal">
        <lane id=":2531489088_1_0" index="0" allow="pedestrian delivery bicycle" speed="5.56" length="9.40" shape="581.28,1494.79 581.18,1485.39"/>
    </edge>
    <edge id=":2531489088_2" function="internal">
        <lane id=":2531489088_2_0" index="0" allow="pedestrian delivery bicycle" speed="5.04" length="5.00" shape="578.11,1488.52 579.47,1488.31 580.43,1487.72 581.00,1486.75 581.18,1485.39"/>
    </edge>
    <edge id=":2531489088_3" function="internal">
        <lane id=":2531489088_3_0" index="0" allow="pedestrian delivery bicycle" speed="3.65" length="4.67" shape="578.11,1488.52 579.32,1489.31 579.73,1490.11 579.34,1490.91 578.15,1491.72"/>
    </edge>
    <edge id=":2531489095_0" function="internal">
        <lane id=":2531489095_0_0" index="0" allow="pedestrian delivery bicycle" speed="3.65" length="4.67" shape="414.54,1262.82 413.98,1264.14 413.26,1264.68 412.40,1264.44 411.40,1263.40"/>
    </edge>
    <edge id=":2531489107_0" function="internal">
        <lane id=":2531489107_0_0" index="0" allow="pedestrian delivery bicycle" speed="5.56" length="8.16" shape="416.29,1226.17 413.86,1226.42 412.09,1226.41 410.49,1226.76 408.58,1228.06"/>
    </edge>
    <edge id=":2531489107_1" function="internal">
        <lane id=":2531489107_1_0" index="0" allow="pedestrian delivery bicycle" speed="5.56" length="10.19" shape="416.29,1226.17 413.50,1226.31 411.34,1225.53 409.80,1223.82 408.89,1221.18"/>
    </edge>
    <edge id=":2531489107_2" function="internal">
        <lane id=":2531489107_2_0" index="0" allow="pedestrian delivery bicycle" speed="3.65" length="4.67" shape="416.29,1226.17 414.96,1225.61 414.41,1224.91 414.65,1224.04 415.67,1223.03"/>
    </edge>
    <edge id=":2531489107_3" function="internal">
        <lane id=":2531489107_3_0" index="0" allow="pedestrian delivery bicycle" speed="5.03" length="5.01" shape="412.03,1220.58 412.48,1221.87 413.23,1222.72 414.30,1223.10 415.67,1223.03"/>
    </edge>
    <edge id=":2531489107_4" function="internal">
        <lane id=":2531489107_4_0" index="0" allow="pedestrian delivery bicycle" speed="5.56" length="8.62" shape="412.03,1220.58 412.09,1222.46 411.53,1224.33 410.36,1226.20 408.58,1228.06"/>
    </edge>
    <edge id=":2531489107_5" function="internal">
        <lane id=":2531489107_5_0" index="0" allow="pedestrian delivery bicycle" speed="3.65" length="4.67" shape="412.03,1220.58 411.47,1221.90 410.76,1222.45 409.90,1222.21 408.89,1221.18"/>
    </edge>
    <edge id=":2531489107_6" function="internal">
        <lane id=":2531489107_6_0" index="0" allow="pedestrian delivery bicycle" speed="5.56" length="4.54" shape="407.07,1225.12 408.01,1224.14 408.63,1223.16 408.92,1222.17 408.89,1221.18"/>
    </edge>
    <edge id=":2531489107_7" function="internal">
        <lane id=":2531489107_7_0" index="0" allow="pedestrian delivery bicycle" speed="5.56" length="9.09" shape="407.07,1225.12 409.20,1223.67 410.98,1223.29 412.96,1223.30 415.67,1223.03"/>
    </edge>
    <edge id=":2531489107_8" function="internal">
        <lane id=":2531489107_8_0" index="0" allow="pedestrian delivery bicycle" speed="3.69" length="4.83" shape="407.07,1225.12 408.55,1225.29 409.30,1225.84 409.31,1226.76 408.58,1228.06"/>
    </edge>
    <edge id=":2531489108_0" function="internal">
        <lane id=":2531489108_0_0" index="0" disallow="tram rail_urban rail rail_electric rail_fast ship" speed="22.22" length="9.41" shape="789.04,1502.66 788.76,1493.26"/>
    </edge>
    <edge id=":2531489108_1" function="internal">
        <lane id=":2531489108_1_0" index="0" allow="pedestrian delivery bicycle" speed="6.95" length="5.02" shape="789.04,1502.66 789.35,1499.95 790.49,1497.96"/>
    </edge>
    <edge id=":2531489108_7" function="internal">
        <lane id=":2531489108_7_0" index="0" allow="pedestrian delivery bicycle" speed="6.95" length="5.15" shape="790.49,1497.96 792.44,1496.68 795.20,1496.12"/>
    </edge>
    <edge id=":2531489108_2" function="internal">
        <lane id=":2531489108_2_0" index="0" allow="pedestrian delivery bicycle" speed="5.15" length="5.14" shape="795.40,1499.32 793.98,1499.60 792.98,1500.23 792.40,1501.22 792.24,1502.57"/>
    </edge>
    <edge id=":2531489108_3" function="internal">
        <lane id=":2531489108_3_0" index="0" allow="pedestrian delivery bicycle" speed="6.83" length="10.33" shape="795.40,1499.32 792.57,1499.09 790.51,1498.00 789.25,1496.06 788.76,1493.26"/>
    </edge>
    <edge id=":2531489108_4" function="internal">
        <lane id=":2531489108_4_0" index="0" allow="pedestrian delivery bicycle" speed="3.65" length="4.67" shape="795.40,1499.32 794.15,1498.59 793.70,1497.82 794.05,1497.00 795.20,1496.12"/>
    </edge>
    <edge id=":2531489108_5" function="internal">
        <lane id=":2531489108_5_0" index="0" allow="pedestrian delivery bicycle" speed="5.00" length="5.04" shape="791.96,1493.17 792.20,1494.53 792.82,1495.48 793.82,1496.01 795.20,1496.12"/>
    </edge>
    <edge id=":2531489108_6" function="internal">
        <lane id=":2531489108_6_0" index="0" disallow="tram rail_urban rail rail_electric rail_fast ship" speed="22.22" length="9.41" shape="791.96,1493.17 792.24,1502.57"/>
    </edge>
    <edge id=":2531489109_0" function="internal">
        <lane id=":2531489109_0_0" index="0" allow="pedestrian delivery bicycle" speed="5.06" length="5.03" shape="496.59,1586.80 496.36,1585.46 495.75,1584.50 494.76,1583.94 493.39,1583.77"/>
    </edge>
    <edge id=":2531489109_1" function="internal">
        <lane id=":2531489109_1_0" index="0" allow="pedestrian delivery bicycle" speed="5.56" length="9.40" shape="496.59,1586.80 496.37,1577.41"/>
    </edge>
    <edge id=":2531489109_2" function="internal">
        <lane id=":2531489109_2_0" index="0" allow="pedestrian delivery bicycle" speed="3.65" length="4.67" shape="496.59,1586.80 497.36,1585.59 498.15,1585.17 498.96,1585.55 499.79,1586.73"/>
    </edge>
    <edge id=":2531489109_3" function="internal">
        <lane id=":2531489109_3_0" index="0" allow="pedestrian delivery bicycle" speed="5.56" length="9.40" shape="499.57,1577.33 499.79,1586.73"/>
    </edge>
    <edge id=":2531489109_4" function="internal">
        <lane id=":2531489109_4_0" index="0" allow="pedestrian delivery bicycle" speed="5.56" length="10.19" shape="499.57,1577.33 499.24,1580.11 498.10,1582.11 496.15,1583.33 493.39,1583.77"/>
    </edge>
    <edge id=":2531489109_5" function="internal">
        <lane id=":2531489109_5_0" index="0" allow="pedestrian delivery bicycle" speed="3.65" length="4.67" shape="499.57,1577.33 498.80,1578.55 498.01,1578.97 497.20,1578.59 496.37,1577.41"/>
    </edge>
    <edge id=":2531489109_6" function="internal">
        <lane id=":2531489109_6_0" index="0" allow="pedestrian delivery bicycle" speed="5.03" length="5.01" shape="493.33,1580.57 494.69,1580.35 495.65,1579.75 496.21,1578.77 496.37,1577.41"/>
    </edge>
    <edge id=":2531489109_7" function="internal">
        <lane id=":2531489109_7_0" index="0" allow="pedestrian delivery bicycle" speed="5.56" length="10.16" shape="493.33,1580.57 496.10,1580.91 498.10,1582.06 499.33,1584.00 499.79,1586.73"/>
    </edge>
    <edge id=":2531489109_8" function="internal">
        <lane id=":2531489109_8_0" index="0" allow="pedestrian delivery bicycle" speed="3.65" length="4.67" shape="493.33,1580.57 494.55,1581.35 494.96,1582.14 494.57,1582.95 493.39,1583.77"/>
    </edge>
    <edge id=":2531489110_0" function="internal">
        <lane id=":2531489110_0_0" index="0" disallow="tram rail_urban rail rail_electric rail_fast ship" speed="22.22" length="9.40" shape="603.36,1508.87 603.31,1499.47"/>
    </edge>
    <edge id=":2531489110_1" function="internal">
        <lane id=":2531489110_1_0" index="0" allow="pedestrian delivery bicycle" speed="6.85" length="5.12" shape="603.36,1508.87 603.74,1506.08 604.92,1504.10"/>
    </edge>
    <edge id=":2531489110_7" function="internal">
        <lane id=":2531489110_7_0" index="0" allow="pedestrian delivery bicycle" speed="6.85" length="5.12" shape="604.92,1504.10 606.91,1502.93 609.70,1502.56"/>
    </edge>
    <edge id=":2531489110_2" function="internal">
        <lane id=":2531489110_2_0" index="0" allow="pedestrian delivery bicycle" speed="5.02" length="5.02" shape="609.66,1505.76 608.30,1505.94 607.32,1506.52 606.74,1507.49 606.56,1508.85"/>
    </edge>
    <edge id=":2531489110_3" function="internal">
        <lane id=":2531489110_3_0" index="0" allow="pedestrian delivery bicycle" speed="6.90" length="10.16" shape="609.66,1505.76 606.89,1505.34 604.91,1504.15 603.72,1502.20 603.31,1499.47"/>
    </edge>
    <edge id=":2531489110_4" function="internal">
        <lane id=":2531489110_4_0" index="0" allow="pedestrian delivery bicycle" speed="3.65" length="4.67" shape="609.66,1505.76 608.47,1504.95 608.08,1504.14 608.49,1503.35 609.70,1502.56"/>
    </edge>
    <edge id=":2531489110_5" function="internal">
        <lane id=":2531489110_5_0" index="0" allow="pedestrian delivery bicycle" speed="5.09" length="5.06" shape="606.51,1499.45 606.71,1500.80 607.31,1501.77 608.31,1502.35 609.70,1502.56"/>
    </edge>
    <edge id=":2531489110_6" function="internal">
        <lane id=":2531489110_6_0" index="0" disallow="tram rail_urban rail rail_electric rail_fast ship" speed="22.22" length="9.40" shape="606.51,1499.45 606.56,1508.85"/>
    </edge>
    <edge id=":2531489113_0" function="internal">
        <lane id=":2531489113_0_0" index="0" allow="pedestrian delivery bicycle" speed="5.56" length="9.39" shape="630.15,1501.19 627.36,1501.14 625.42,1501.20 623.56,1501.64 621.04,1502.75"/>
    </edge>
    <edge id=":2531489113_1" function="internal">
        <lane id=":2531489113_1_0" index="0" allow="pedestrian delivery bicycle" speed="5.56" length="10.25" shape="630.15,1501.19 627.36,1500.78 625.39,1499.58 624.23,1497.59 623.88,1494.79"/>
    </edge>
    <edge id=":2531489113_2" function="internal">
        <lane id=":2531489113_2_0" index="0" allow="pedestrian delivery bicycle" speed="3.65" length="4.67" shape="630.15,1501.19 628.95,1500.38 628.55,1499.58 628.95,1498.78 630.15,1497.99"/>
    </edge>
    <edge id=":2531489113_3" function="internal">
        <lane id=":2531489113_3_0" index="0" allow="pedestrian delivery bicycle" speed="5.02" length="5.02" shape="627.08,1494.85 627.25,1496.22 627.82,1497.20 628.78,1497.79 630.15,1497.99"/>
    </edge>
    <edge id=":2531489113_4" function="internal">
        <lane id=":2531489113_4_0" index="0" allow="pedestrian delivery bicycle" speed="5.56" length="10.47" shape="627.08,1494.85 626.67,1497.21 625.52,1499.31 623.65,1501.16 621.04,1502.75"/>
    </edge>
    <edge id=":2531489113_5" function="internal">
        <lane id=":2531489113_5_0" index="0" allow="pedestrian delivery bicycle" speed="3.65" length="4.67" shape="627.08,1494.85 626.26,1496.04 625.45,1496.42 624.66,1496.01 623.88,1494.79"/>
    </edge>
    <edge id=":2531489113_6" function="internal">
        <lane id=":2531489113_6_0" index="0" allow="pedestrian delivery bicycle" speed="5.56" length="5.62" shape="620.94,1499.23 622.21,1498.42 623.12,1497.41 623.68,1496.20 623.88,1494.79"/>
    </edge>
    <edge id=":2531489113_7" function="internal">
        <lane id=":2531489113_7_0" index="0" allow="pedestrian delivery bicycle" speed="5.56" length="9.45" shape="620.94,1499.23 623.49,1498.17 625.37,1497.84 627.34,1497.89 630.15,1497.99"/>
    </edge>
    <edge id=":2531489113_8" function="internal">
        <lane id=":2531489113_8_0" index="0" allow="pedestrian delivery bicycle" speed="3.77" length="5.14" shape="620.94,1499.23 622.29,1500.07 622.75,1500.94 622.33,1501.83 621.04,1502.75"/>
    </edge>
    <edge id=":2531489121_0" function="internal">
        <lane id=":2531489121_0_0" index="0" allow="pedestrian delivery bicycle" speed="5.56" length="9.40" shape="515.32,1645.65 515.04,1636.25"/>
    </edge>
    <edge id=":2531489121_1" function="internal">
        <lane id=":2531489121_1_0" index="0" allow="pedestrian delivery bicycle" speed="5.56" length="10.17" shape="515.32,1645.65 515.63,1642.92 516.76,1640.92 518.71,1639.66 521.46,1639.13"/>
    </edge>
    <edge id=":2531489121_2" function="internal">
        <lane id=":2531489121_2_0" index="0" allow="pedestrian delivery bicycle" speed="3.65" length="4.67" shape="515.32,1645.65 516.08,1644.43 516.87,1644.00 517.68,1644.38 518.52,1645.55"/>
    </edge>
    <edge id=":2531489121_3" function="internal">
        <lane id=":2531489121_3_0" index="0" allow="pedestrian delivery bicycle" speed="5.11" length="5.09" shape="521.63,1642.33 520.23,1642.59 519.25,1643.21 518.68,1644.20 518.52,1645.55"/>
    </edge>
    <edge id=":2531489121_4" function="internal">