<?xml version="1.0" encoding="UTF-8"?>

<!-- generated on 2022-02-08 01:23:37 by Eclipse SUMO duarouter Version 1.11.0
<configuration xmlns:xsi="http://www.w3.org/2001/XMLSchema-instance" xsi:noNamespaceSchemaLocation="http://sumo.dlr.de/xsd/duarouterConfiguration.xsd">

    <input>
        <net-file value="C:\Users\Nathan\Sumo\2022-02-08-01-23-27\osm.net.xml"/>
        <route-files value="C:\Users\Nathan\Sumo\2022-02-08-01-23-27\osm.passenger.trips.xml"/>
    </input>

    <output>
        <output-file value="C:\Users\Nathan\Sumo\2022-02-08-01-23-27\osm.passenger.trips.xml.tmp"/>
        <write-trips value="true"/>
    </output>

    <time>
        <begin value="0"/>
        <end value="3600"/>
    </time>

    <report>
        <no-warnings value="true"/>
        <ignore-errors value="true"/>
        <no-step-log value="true"/>
    </report>

</configuration>
-->

<routes xmlns:xsi="http://www.w3.org/2001/XMLSchema-instance" xsi:noNamespaceSchemaLocation="http://sumo.dlr.de/xsd/routes_file.xsd">
    <vType id="veh_passenger" vClass="passenger"/>
    <trip id="veh0" type="veh_passenger" depart="0.00" departLane="best" from="5318556#3" to="-237758610#0"/>
    <trip id="veh1" type="veh_passenger" depart="6.26" departLane="best" from="-5319997#7" to="-5319914"/>
    <trip id="veh2" type="veh_passenger" depart="12.53" departLane="best" departSpeed="max" from="5319914" to="5319379#2"/>
    <trip id="veh3" type="veh_passenger" depart="18.79" departLane="best" from="551574248#0" to="-423055513#5"/>
    <trip id="veh4" type="veh_passenger" depart="25.05" departLane="best" from="-66646830#4" to="-237758610#1"/>
    <trip id="veh5" type="veh_passenger" depart="31.31" departLane="best" from="-5319480#1" to="246068954"/>
    <trip id="veh6" type="veh_passenger" depart="37.58" departLane="best" from="-237758610#3" to="-5319479#5"/>
    <trip id="veh7" type="veh_passenger" depart="43.84" departLane="best" from="5318557#5" to="369429841#10"/>
    <trip id="veh8" type="veh_passenger" depart="50.10" departLane="best" departSpeed="max" from="-5319482" to="5317509#2"/>
    <trip id="veh9" type="veh_passenger" depart="56.36" departLane="best" from="5320037#6" to="5319482"/>
    <trip id="veh10" type="veh_passenger" depart="62.63" departLane="best" departSpeed="max" from="-5320141#6" to="-5318889#6"/>
    <trip id="veh11" type="veh_passenger" depart="68.89" departLane="best" from="827438339#6" to="-5320271"/>
    <trip id="veh12" type="veh_passenger" depart="75.15" departLane="best" departSpeed="max" from="5320267#0" to="5317944#3"/>
    <trip id="veh13" type="veh_passenger" depart="81.42" departLane="best" departSpeed="max" from="5320062#0" to="5319946#1"/>
    <trip id="veh14" type="veh_passenger" depart="87.68" departLane="best" departSpeed="max" from="237758610#0" to="832995794#1"/>
    <trip id="veh15" type="veh_passenger" depart="93.94" departLane="best" from="-551574244#1" to="369429841#5"/>
    <trip id="veh16" type="veh_passenger" depart="100.20" departLane="best" from="5320104#0" to="5318556#3"/>
    <trip id="veh17" type="veh_passenger" depart="106.47" departLane="best" departSpeed="max" from="5320282#0" to="5317026#0"/>
    <trip id="veh18" type="veh_passenger" depart="112.73" departLane="best" from="-5319595#2" to="-5320037#4"/>
    <trip id="veh19" type="veh_passenger" depart="118.99" departLane="best" from="-369429841#5" to="-5319932"/>
    <trip id="veh20" type="veh_passenger" depart="125.25" departLane="best" departSpeed="max" from="-5316490" to="-5320027#0"/>
    <trip id="veh21" type="veh_passenger" depart="131.52" departLane="best" from="5318106#1" to="-551574244#0"/>
    <trip id="veh22" type="veh_passenger" depart="137.78" departLane="best" from="-5320561#3" to="-5319595#4"/>
    <trip id="veh23" type="veh_passenger" depart="144.04" departLane="best" from="-5319951#7" to="827438338#1"/>
    <trip id="veh24" type="veh_passenger" depart="150.31" departLane="best" from="5318557#3" to="5317944#7"/>
    <trip id="veh25" type="veh_passenger" depart="156.57" departLane="best" from="-5318889#18" to="5319946#1"/>
    <trip id="veh26" type="veh_passenger" depart="162.83" departLane="best" from="-5318889#11" to="-551574250#1"/>
    <trip id="veh27" type="veh_passenger" depart="169.09" departLane="best" from="832995799#4" to="5318889#12"/>
    <trip id="veh28" type="veh_passenger" depart="175.36" departLane="best" from="5320184" to="5320027#5"/>
    <trip id="veh29" type="veh_passenger" depart="181.62" departLane="best" from="-5319595#3" to="-237758610#6"/>
    <trip id="veh30" type="veh_passenger" depart="187.88" departLane="best" from="-5320062#8" to="-5319997#4"/>
    <trip id="veh31" type="veh_passenger" depart="194.14" departLane="best" from="-5319479#14" to="827438339#2"/>
    <trip id="veh32" type="veh_passenger" depart="200.41" departLane="best" from="5320561#8" to="-5320104#1"/>
    <trip id="veh33" type="veh_passenger" depart="206.67" departLane="best" from="5318889#12" to="-66646830#4"/>
    <trip id="veh34" type="veh_passenger" depart="212.93" departLane="best" from="66646830#8" to="-832995799#0"/>
    <trip id="veh35" type="veh_passenger" depart="219.20" departLane="best" from="246078324#1" to="-5319997#0"/>
    <trip id="veh36" type="veh_passenger" depart="225.46" departLane="best" from="-551574250#0" to="-5319846#7"/>
    <trip id="veh37" type="veh_passenger" depart="231.72" departLane="best" from="832995801#2" to="246068955#10"/>
    <trip id="veh38" type="veh_passenger" depart="237.98" departLane="best" from="-423055513#4" to="-246068955#9"/>
    <trip id="veh39" type="veh_passenger" depart="244.25" departLane="best" departSpeed="max" from="-5317026#2" to="5318556#8"/>
    <trip id="veh40" type="veh_passenger" depart="250.51" departLane="best" from="5320027#0" to="-827438338#0"/>
    <trip id="veh41" type="veh_passenger" depart="256.77" departLane="best" from="832995801#1" to="246084782"/>
    <trip id="veh42" type="veh_passenger" depart="263.03" departLane="best" from="830855650#4" to="551574245#0"/>
    <trip id="veh43" type="veh_passenger" depart="269.30" departLane="best" departSpeed="max" from="5318928#0" to="246086290#5"/>
    <trip id="veh44" type="veh_passenger" depart="275.56" departLane="best" from="-5319951#7" to="5318889#13"/>
    <trip id="veh45" type="veh_passenger" depart="281.82" departLane="best" from="-5317346#0" to="-827438339#9"/>
    <trip id="veh46" type="veh_passenger" depart="288.09" departLane="best" from="-827438339#10" to="827438340#3"/>
    <trip id="veh47" type="veh_passenger" depart="294.35" departLane="best" from="5320561#7" to="-5319997#0"/>
    <trip id="veh48" type="veh_passenger" depart="300.61" departLane="best" departSpeed="max" from="-832995798#3" to="-5318931#2"/>
    <trip id="veh49" type="veh_passenger" depart="306.87" departLane="best" from="66646830#5" to="551574248#0"/>
    <trip id="veh50" type="veh_passenger" depart="313.14" departLane="best" from="5317026#0" to="-5318889#4"/>
    <trip id="veh51" type="veh_passenger" depart="319.40" departLane="best" from="5319948#4" to="246086290#5"/>
    <trip id="veh52" type="veh_passenger" depart="325.66" departLane="best" departSpeed="max" from="5319997#0" to="246084782"/>
    <trip id="veh53" type="veh_passenger" depart="331.92" departLane="best" from="-228742247#0" to="-5320155#4"/>
    <trip id="veh54" type="veh_passenger" depart="338.19" departLane="best" from="-237758605#0" to="66648398#3"/>
    <trip id="veh55" type="veh_passenger" depart="344.45" departLane="best" from="551574243#2" to="5320281"/>
    <trip id="veh56" type="veh_passenger" depart="350.71" departLane="best" from="-5320037#1" to="-246084789"/>
    <trip id="veh57" type="veh_passenger" depart="356.97" departLane="best" from="551574243#1" to="827438339#7"/>
    <trip id="veh58" type="veh_passenger" depart="363.24" departLane="best" from="-369436865#1" to="228742250#4"/>
    <trip id="veh59" type="veh_passenger" depart="369.50" departLane="best" from="-369429841#0" to="5320021#1"/>
    <trip id="veh60" type="veh_passenger" depart="375.76" departLane="best" from="5319951#10" to="-5318556#5"/>
    <trip id="veh61" type="veh_passenger" depart="382.03" departLane="best" from="-830855650#1" to="369429841#3"/>
    <trip id="veh62" type="veh_passenger" depart="388.29" departLane="best" from="-5319951#2" to="551574248#2"/>
    <trip id="veh63" type="veh_passenger" depart="394.55" departLane="best" from="-66646830#5" to="-5319846#1"/>
    <trip id="veh64" type="veh_passenger" depart="400.81" departLane="best" from="237758610#1" to="5319946#1"/>
    <trip id="veh65" type="veh_passenger" depart="407.08" departLane="best" departSpeed="max" from="832995801#0" to="5318889#3"/>
    <trip id="veh66" type="veh_passenger" depart="413.34" departLane="best" from="-66648398#0" to="246068955#7"/>
    <trip id="veh67" type="veh_passenger" depart="419.60" departLane="best" from="-5317904#1" to="-5319914"/>
    <trip id="veh68" type="veh_passenger" depart="425.86" departLane="best" departSpeed="max" from="-5320141#6" to="5317509#0"/>
    <trip id="veh69" type="veh_passenger" depart="432.13" departLane="best" from="-5319595#4" to="-5319846#8"/>
    <trip id="veh70" type="veh_passenger" depart="438.39" departLane="best" departSpeed="max" from="-369429841#10" to="5318557#2"/>
    <trip id="veh71" type="veh_passenger" depart="444.65" departLane="best" from="-5319595#2" to="66646831#0"/>
    <trip id="veh72" type="veh_passenger" depart="450.92" departLane="best" departSpeed="max" from="5320282#0" to="-369429841#2"/>
    <trip id="veh73" type="veh_passenger" depart="457.18" departLane="best" from="-5319846#1" to="5318931#0"/>
    <trip id="veh74" type="veh_passenger" depart="463.44" departLane="best" from="-5319479#4" to="-5318557#1"/>
    <trip id="veh75" type="veh_passenger" depart="469.70" departLane="best" from="66648398#2" to="5316490"/>
    <trip id="veh76" type="veh_passenger" depart="475.97" departLane="best" from="-827438341#1" to="5320037#2"/>
    <trip id="veh77" type="veh_passenger" depart="482.23" departLane="best" from="-5315924" to="-827438339#3"/>
    <trip id="veh78" type="veh_passenger" depart="488.49" departLane="best" from="-66646830#5" to="-832995801#0"/>
    <trip id="veh79" type="veh_passenger" depart="494.75" departLane="best" from="5319846#4" to="5318931#5"/>
    <trip id="veh80" type="veh_passenger" depart="501.02" departLane="best" departSpeed="max" from="832995799#0" to="-5317026#0"/>
    <trip id="veh81" type="veh_passenger" depart="507.28" departLane="best" from="-551574251#0" to="-5320271"/>
    <trip id="veh82" type="veh_passenger" depart="513.54" departLane="best" departSpeed="max" from="5320282#0" to="-5319948#3"/>
    <trip id="veh83" type="veh_passenger" depart="519.81" departLane="best" from="-5318928#1" to="-832995794#0"/>
    <trip id="veh84" type="veh_passenger" depart="526.07" departLane="best" from="-66646830#4" to="-5320027#0"/>
    <trip id="veh85" type="veh_passenger" depart="532.33" departLane="best" from="-5319927#0" to="66648398#1"/>
    <trip id="veh86" type="veh_passenger" depart="538.59" departLane="best" departSpeed="max" from="-66648398#3" to="551574245#0"/>
    <trip id="veh87" type="veh_passenger" depart="544.86" departLane="best" from="246068955#15" to="-246078324#0"/>
    <trip id="veh88" type="veh_passenger" depart="551.12" departLane="best" from="883773973#1" to="5320282#1"/>
    <trip id="veh89" type="veh_passenger" depart="557.38" departLane="best" from="830855650#2" to="66648398#3"/>
    <trip id="veh90" type="veh_passenger" depart="563.64" departLane="best" departSpeed="max" from="5320267#0" to="-5318919#6"/>
    <trip id="veh91" type="veh_passenger" depart="569.91" departLane="best" departSpeed="max" from="-832995794#1" to="-5319846#2"/>
    <trip id="veh92" type="veh_passenger" depart="576.17" departLane="best" from="-551574250#1" to="-246086290#0"/>
    <trip id="veh93" type="veh_passenger" depart="582.43" departLane="best" from="-551574244#1" to="832995798#2"/>
    <trip id="veh94" type="veh_passenger" depart="588.70" departLane="best" from="-5319951#2" to="5320037#1"/>
    <trip id="veh95" type="veh_passenger" depart="594.96" departLane="best" from="-827438339#12" to="-827438338#1"/>
    <trip id="veh96" type="veh_passenger" depart="601.22" departLane="best" from="246068955#8" to="5319846#4"/>
    <trip id="veh97" type="veh_passenger" depart="607.48" departLane="best" from="-5318557#1" to="-5320062#2"/>
    <trip id="veh98" type="veh_passenger" depart="613.75" departLane="best" from="830855650#2" to="5317026#2"/>
    <trip id="veh99" type="veh_passenger" depart="620.01" departLane="best" from="237758610#6" to="5319997#4"/>
    <trip id="veh100" type="veh_passenger" depart="626.27" departLane="best" departSpeed="max" from="-832995798#3" to="5320561#6"/>
    <trip id="veh101" type="veh_passenger" depart="632.53" departLane="best" from="-5318557#4" to="830855650#0"/>
    <trip id="veh102" type="veh_passenger" depart="638.80" departLane="best" from="-369429841#5" to="-5319479#0"/>
    <trip id="veh103" type="veh_passenger" depart="645.06" departLane="best" departSpeed="max" from="-5319595#5" to="-5317944#6"/>
    <trip id="veh104" type="veh_passenger" depart="651.32" departLane="best" from="551574245#1" to="-5319948#1"/>
    <trip id="veh105" type="veh_passenger" depart="657.59" departLane="best" from="423055513#3" to="5318556#3"/>
    <trip id="veh106" type="veh_passenger" depart="663.85" departLane="best" from="-66646830#0" to="5317026#2"/>
    <trip id="veh107" type="veh_passenger" depart="670.11" departLane="best" from="228742250#3" to="827438336#1"/>
    <trip id="veh108" type="veh_passenger" depart="676.37" departLane="best" departSpeed="max" from="-5319379#2" to="5319846#2"/>
    <trip id="veh109" type="veh_passenger" depart="682.64" departLane="best" from="-5319846#1" to="-66646830#4"/>
    <trip id="veh110" type="veh_passenger" depart="688.90" departLane="best" from="5318889#9" to="-5320062#8"/>
    <trip id="veh111" type="veh_passenger" depart="695.16" departLane="best" from="-5320062#8" to="5319997#8"/>
    <trip id="veh112" type="veh_passenger" depart="701.42" departLane="best" departSpeed="max" from="-369429841#10" to="-832995799#0"/>
    <trip id="veh113" type="veh_passenger" depart="707.69" departLane="best" from="883773973#0" to="832995801#1"/>
    <trip id="veh114" type="veh_passenger" depart="713.95" departLane="best" departSpeed="max" from="-369429841#10" to="-5319846#12"/>
    <trip id="veh115" type="veh_passenger" depart="720.21" departLane="best" departSpeed="max" from="551574244#0" to="551574250#0"/>
    <trip id="veh116" type="veh_passenger" depart="726.48" departLane="best" from="5320117#0" to="5319595#2"/>
    <trip id="veh117" type="veh_passenger" depart="732.74" departLane="best" from="5317346#0" to="832995798#3"/>
    <trip id="veh118" type="veh_passenger" depart="739.00" departLane="best" from="5320063#0" to="-5320062#7"/>
    <trip id="veh119" type="veh_passenger" depart="745.26" departLane="best" from="5318889#19" to="827438339#0"/>
    <trip id="veh120" type="veh_passenger" depart="751.53" departLane="best" departSpeed="max" from="-5317944#7" to="-5317944#1"/>
    <trip id="veh121" type="veh_passenger" depart="757.79" departLane="best" departSpeed="max" from="-5317026#2" to="369429841#6"/>
    <trip id="veh122" type="veh_passenger" depart="764.05" departLane="best" from="-5319997#4" to="5317944#4"/>
    <trip id="veh123" type="veh_passenger" depart="770.31" departLane="best" from="5318106#0" to="-5319997#0"/>
    <trip id="veh124" type="veh_passenger" depart="776.58" departLane="best" departSpeed="max" from="-832995796#1" to="66646831#0"/>
    <trip id="veh125" type="veh_passenger" depart="782.84" departLane="best" departSpeed="max" from="5320267#0" to="-5315922#0"/>
    <trip id="veh126" type="veh_passenger" depart="789.10" departLane="best" from="-66646830#5" to="-5320022#3"/>
    <trip id="veh127" type="veh_passenger" depart="795.37" departLane="best" from="5318556#0" to="-5319997#0"/>
    <trip id="veh128" type="veh_passenger" depart="801.63" departLane="best" from="-66647659#11" to="-228742250#1"/>
    <trip id="veh129" type="veh_passenger" depart="807.89" departLane="best" departSpeed="max" from="-369429841#10" to="624107797#0"/>
    <trip id="veh130" type="veh_passenger" depart="814.15" departLane="best" from="626798594#2" to="369429841#10"/>
    <trip id="veh131" type="veh_passenger" depart="820.42" departLane="best" from="5320141#0" to="5317026#2"/>
    <trip id="veh132" type="veh_passenger" depart="826.68" departLane="best" from="-5320037#2" to="66646830#1"/>
    <trip id="veh133" type="veh_passenger" depart="832.94" departLane="best" from="5320027#3" to="551574245#0"/>
    <trip id="veh134" type="veh_passenger" depart="839.20" departLane="best" from="551574251#1" to="-5319595#4"/>
    <trip id="veh135" type="veh_passenger" depart="845.47" departLane="best" from="-5319927#0" to="-5317346#2"/>
    <trip id="veh136" type="veh_passenger" depart="851.73" departLane="best" from="5319997#2" to="624107797#1"/>
    <trip id="veh137" type="veh_passenger" depart="857.99" departLane="best" departSpeed="max" from="-624107797#2" to="5318556#5"/>
    <trip id="veh138" type="veh_passenger" depart="864.26" departLane="best" from="-5318557#1" to="66648398#3"/>
    <trip id="veh139" type="veh_passenger" depart="870.52" departLane="best" from="5320282#2" to="832995796#1"/>
    <trip id="veh140" type="veh_passenger" depart="876.78" departLane="best" departSpeed="max" from="5320062#0" to="551574251#0"/>
    <trip id="veh141" type="veh_passenger" depart="883.04" departLane="best" from="-237758610#2" to="5319948#5"/>
    <trip id="veh142" type="veh_passenger" depart="889.31" departLane="best" from="-5320104#5" to="66648399#0"/>
    <trip id="veh143" type="veh_passenger" depart="895.57" departLane="best" from="5320037#3" to="551574247#1"/>
    <trip id="veh144" type="veh_passenger" depart="901.83" departLane="best" departSpeed="max" from="5320062#0" to="-5319997#2"/>
    <trip id="veh145" type="veh_passenger" depart="908.09" departLane="best" from="5320022#0" to="-5317725#1"/>
    <trip id="veh146" type="veh_passenger" depart="914.36" departLane="best" from="5320561#4" to="551574244#2"/>
    <trip id="veh147" type="veh_passenger" depart="920.62" departLane="best" departSpeed="max" from="-5319482" to="5320141#6"/>
    <trip id="veh148" type="veh_passenger" depart="926.88" departLane="best" from="-827438339#7" to="-5320063#4"/>
    <trip id="veh149" type="veh_passenger" depart="933.15" departLane="best" from="5320027#2" to="-5319914"/>
    <trip id="veh150" type="veh_passenger" depart="939.41" departLane="best" from="-237758610#1" to="-5319479#13"/>
    <trip id="veh151" type="veh_passenger" depart="945.67" departLane="best" from="-5320103#4" to="551574247#1"/>
    <trip id="veh152" type="veh_passenger" depart="951.93" departLane="best" from="830855650#1" to="-5320027#1"/>
    <trip id="veh153" type="veh_passenger" depart="958.20" departLane="best" from="5318556#4" to="-66647659#1"/>
    <trip id="veh154" type="veh_passenger" depart="964.46" departLane="best" departSpeed="max" from="832995799#0" to="246086290#5"/>
    <trip id="veh155" type="veh_passenger" depart="970.72" departLane="best" departSpeed="max" from="827438336#0" to="-5317944#1"/>
    <trip id="veh156" type="veh_passenger" depart="976.98" departLane="best" from="830855650#4" to="-5318931#2"/>
    <trip id="veh157" type="veh_passenger" depart="983.25" departLane="best" from="827438340#2" to="-5319997#0"/>
    <trip id="veh158" type="veh_passenger" depart="989.51" departLane="best" departSpeed="max" from="-5317026#2" to="-827438339#7"/>
    <trip id="veh159" type="veh_passenger" depart="995.77" departLane="best" from="5319846#3" to="-5320104#0"/>
    <trip id="veh160" type="veh_passenger" depart="1002.03" departLane="best" from="5315922#1" to="246068955#14"/>
    <trip id="veh161" type="veh_passenger" depart="1008.30" departLane="best" departSpeed="max" from="-551574247#1" to="5317026#0"/>
    <trip id="veh162" type="veh_passenger" depart="1014.56" departLane="best" from="-5319946#2" to="5319595#5"/>
    <trip id="veh163" type="veh_passenger" depart="1020.82" departLane="best" from="-228742247#1" to="66648398#3"/>
    <trip id="veh164" type="veh_passenger" depart="1027.09" departLane="best" departSpeed="max" from="237758610#0" to="5319846#5"/>
    <trip id="veh165" type="veh_passenger" depart="1033.35" departLane="best" from="5319927#0" to="5318931#2"/>
    <trip id="veh166" type="veh_passenger" depart="1039.61" departLane="best" departSpeed="max" from="-5320282#5" to="-369429841#1"/>
    <trip id="veh167" type="veh_passenger" depart="1045.87" departLane="best" from="5318889#2" to="-5320267#0"/>
    <trip id="veh168" type="veh_passenger" depart="1052.14" departLane="best" from="-5320062#4" to="5320561#2"/>
    <trip id="veh169" type="veh_passenger" depart="1058.40" departLane="best" from="5319595#1" to="-5320062#8"/>
    <trip id="veh170" type="veh_passenger" depart="1064.66" departLane="best" from="-551574251#0" to="-5320062#0"/>
    <trip id="veh171" type="veh_passenger" depart="1070.92" departLane="best" from="-5317944#3" to="-827438336#1"/>
    <trip id="veh172" type="veh_passenger" depart="1077.19" departLane="best" departSpeed="max" from="827438336#0" to="5319379#2"/>
    <trip id="veh173" type="veh_passenger" depart="1083.45" departLane="best" departSpeed="max" from="-5320028" to="369429841#10"/>
    <trip id="veh174" type="veh_passenger" depart="1089.71" departLane="best" from="-228742247#0" to="-5320037#2"/>
    <trip id="veh175" type="veh_passenger" depart="1095.98" departLane="best" from="-66647659#2" to="5317026#2"/>
    <trip id="veh176" type="veh_passenger" depart="1102.24" departLane="best" from="5318889#11" to="-832995799#4"/>
    <trip id="veh177" type="veh_passenger" depart="1108.50" departLane="best" departSpeed="max" from="-66648398#3" to="-5319846#2"/>
    <trip id="veh178" type="veh_passenger" depart="1114.76" departLane="best" from="-827438341#1" to="66646830#4"/>
    <trip id="veh179" type="veh_passenger" depart="1121.03" departLane="best" from="5320027#3" to="-5318928#0"/>
    <trip id="veh180" type="veh_passenger" depart="1127.29" departLane="best" from="-369436865#0" to="246068955#2"/>
    <trip id="veh181" type="veh_passenger" depart="1133.55" departLane="best" from="5317944#6" to="-5320271"/>
    <trip id="veh182" type="veh_passenger" depart="1139.81" departLane="best" from="5318919#0" to="-5319914"/>
    <trip id="veh183" type="veh_passenger" depart="1146.08" departLane="best" from="-5319379#1" to="-237758610#0"/>
    <trip id="veh184" type="veh_passenger" depart="1152.34" departLane="best" from="-5319846#6" to="228742247#1"/>
    <trip id="veh185" type="veh_passenger" depart="1158.60" departLane="best" departSpeed="max" from="5320267#0" to="-369429841#3"/>
    <trip id="veh186" type="veh_passenger" depart="1164.87" departLane="best" from="-626798594#2" to="5318557#1"/>
    <trip id="veh187" type="veh_passenger" depart="1171.13" departLane="best" from="-5318931#1" to="5319482"/>
    <trip id="veh188" type="veh_passenger" depart="1177.39" departLane="best" from="-832995797#0" to="-5319946#1"/>
    <trip id="veh189" type="veh_passenger" depart="1183.65" departLane="best" departSpeed="max" from="5319932" to="5320027#0"/>
    <trip id="veh190" type="veh_passenger" depart="1189.92" departLane="best" from="-5318889#5" to="827438341#0"/>
    <trip id="veh191" type="veh_passenger" depart="1196.18" departLane="best" from="228742247#9" to="-246078324#0"/>
    <trip id="veh192" type="veh_passenger" depart="1202.44" departLane="best" from="-827438339#2" to="5320091#1"/>
    <trip id="veh193" type="veh_passenger" depart="1208.70" departLane="best" from="5318889#5" to="832995798#3"/>
    <trip id="veh194" type="veh_passenger" depart="1214.97" departLane="best" from="423055513#4" to="827438340#0"/>
    <trip id="veh195" type="veh_passenger" depart="1221.23" departLane="best" from="551574247#0" to="5317944#7"/>
    <trip id="veh196" type="veh_passenger" depart="1227.49" departLane="best" from="5319595#1" to="246068954"/>
    <trip id="veh197" type="veh_passenger" depart="1233.76" departLane="best" from="5320104#1" to="369429841#10"/>
    <trip id="veh198" type="veh_passenger" depart="1240.02" departLane="best" from="551574251#0" to="5319953#0"/>
    <trip id="veh199" type="veh_passenger" depart="1246.28" departLane="best" from="-830855650#1" to="-5319953#1"/>
    <trip id="veh200" type="veh_passenger" depart="1252.54" departLane="best" from="-5319846#8" to="5318889#10"/>
    <trip id="veh201" type="veh_passenger" depart="1258.81" departLane="best" from="5319951#10" to="246078316#1"/>
    <trip id="veh202" type="veh_passenger" depart="1265.07" departLane="best" from="5317904#4" to="-5320022#1"/>
    <trip id="veh203" type="veh_passenger" depart="1271.33" departLane="best" from="-369429841#3" to="-5320037#1"/>
    <trip id="veh204" type="veh_passenger" depart="1277.59" departLane="best" from="-5319997#2" to="-5320141#2"/>
    <trip id="veh205" type="veh_passenger" depart="1283.86" departLane="best" departSpeed="max" from="-5319595#5" to="5319480#1"/>
    <trip id="veh206" type="veh_passenger" depart="1290.12" departLane="best" from="5319479#13" to="-246086290#1"/>
    <trip id="veh207" type="veh_passenger" depart="1296.38" departLane="best" departSpeed="max" from="-624107797#2" to="369429841#1"/>
    <trip id="veh208" type="veh_passenger" depart="1302.65" departLane="best" from="-66646826" to="-5319595#1"/>
    <trip id="veh209" type="veh_passenger" depart="1308.91" departLane="best" from="-66646830#1" to="66646831#0"/>
    <trip id="veh210" type="veh_passenger" depart="1315.17" departLane="best" from="369429841#5" to="5319480#2"/>
    <trip id="veh211" type="veh_passenger" depart="1321.43" departLane="best" departSpeed="max" from="5320271" to="5320022#1"/>
    <trip id="veh212" type="veh_passenger" depart="1327.70" departLane="best" from="-551574244#2" to="-228742247#8"/>
    <trip id="veh213" type="veh_passenger" depart="1333.96" departLane="best" departSpeed="max" from="-5320281" to="5320020"/>
    <trip id="veh214" type="veh_passenger" depart="1340.22" departLane="best" from="-66646830#0" to="5319997#2"/>
    <trip id="veh215" type="veh_passenger" depart="1346.48" departLane="best" from="246068955#1" to="5317944#3"/>
    <trip id="veh216" type="veh_passenger" depart="1352.75" departLane="best" departSpeed="max" from="-5319482" to="-5319846#7"/>
    <trip id="veh217" type="veh_passenger" depart="1359.01" departLane="best" from="-66648396#0" to="-237758610#1"/>
    <trip id="veh218" type="veh_passenger" depart="1365.27" departLane="best" from="-624107797#0" to="-5318919#5"/>
    <trip id="veh219" type="veh_passenger" depart="1371.54" departLane="best" departSpeed="max" from="-827438340#3" to="-5318556#4"/>
    <trip id="veh220" type="veh_passenger" depart="1377.80" departLane="best" from="5317904#0" to="-237758610#0"/>
    <trip id="veh221" type="veh_passenger" depart="1384.06" departLane="best" departSpeed="max" from="-551574249" to="423055513#5"/>
    <trip id="veh222" type="veh_passenger" depart="1390.32" departLane="best" from="-237758610#6" to="5318889#15"/>
    <trip id="veh223" type="veh_passenger" depart="1396.59" departLane="best" departSpeed="max" from="-5317944#7" to="-832995799#1"/>
    <trip id="veh224" type="veh_passenger" depart="1402.85" departLane="best" from="-246078324#0" to="-551574250#0"/>
    <trip id="veh225" type="veh_passenger" depart="1409.11" departLane="best" from="-5319479#2" to="-5320184"/>
    <trip id="veh226" type="veh_passenger" depart="1415.37" departLane="best" from="5319948#3" to="-551574250#0"/>
    <trip id="veh227" type="veh_passenger" depart="1421.64" departLane="best" departSpeed="max" from="5319946#0" to="5320281"/>
    <trip id="veh228" type="veh_passenger" depart="1427.90" departLane="best" from="-5319928#2" to="-423055513#0"/>
    <trip id="veh229" type="veh_passenger" depart="1434.16" departLane="best" from="-237758605#0" to="246086290#5"/>
    <trip id="veh230" type="veh_passenger" depart="1440.43" departLane="best" from="883773973#1" to="-5320282#4"/>
    <trip id="veh231" type="veh_passenger" depart="1446.69" departLane="best" from="5318557#5" to="5320028"/>
    <trip id="veh232" type="veh_passenger" depart="1452.95" departLane="best" from="5318889#1" to="5320020"/>
    <trip id="veh233" type="veh_passenger" depart="1459.21" departLane="best" from="827438339#0" to="-5319479#8"/>
    <trip id="veh234" type="veh_passenger" depart="1465.48" departLane="best" from="-237758605#1" to="-5318889#3"/>
    <trip id="veh235" type="veh_passenger" depart="1471.74" departLane="best" from="-5317944#1" to="5318931#1"/>
    <trip id="veh236" type="veh_passenger" depart="1478.00" departLane="best" departSpeed="max" from="246084789" to="-5319846#6"/>
    <trip id="veh237" type="veh_passenger" depart="1484.26" departLane="best" departSpeed="max" from="5319479#0" to="5320022#2"/>
    <trip id="veh238" type="veh_passenger" depart="1490.53" departLane="best" from="-5318889#15" to="5317944#6"/>
    <trip id="veh239" type="veh_passenger" depart="1496.79" departLane="best" departSpeed="max" from="5319932" to="-5317944#0"/>
    <trip id="veh240" type="veh_passenger" depart="1503.05" departLane="best" from="5320063#3" to="830855650#4"/>
    <trip id="veh241" type="veh_passenger" depart="1509.32" departLane="best" departSpeed="max" from="-5317026#2" to="-237758610#0"/>
    <trip id="veh242" type="veh_passenger" depart="1515.58" departLane="best" from="-5320062#2" to="5319379#2"/>