<?xml version="1.0" encoding="UTF-8"?>

<!-- generated on 2022-02-08 01:23:35 by Eclipse SUMO polyconvert Version 1.11.0
<configuration xmlns:xsi="http://www.w3.org/2001/XMLSchema-instance" xsi:noNamespaceSchemaLocation="http://sumo.dlr.de/xsd/polyconvertConfiguration.xsd">

    <input>
        <net-file value="osm.net.xml"/>
        <osm-files value="osm_bbox.osm.xml"/>
        <osm.keep-full-type value="true"/>
        <type-file value="C:\Program%20Files%20(x86)\Eclipse\Sumo\data\typemap\osmPolyconvert.typ.xml"/>
    </input>

    <output>
        <output-file value="osm.poly.xml"/>
    </output>

    <processing>
        <poi-layer-offset value="5"/>
    </processing>

    <report>
        <verbose value="true"/>
    </report>

</configuration>
-->

<additional xmlns:xsi="http://www.w3.org/2001/XMLSchema-instance" xsi:noNamespaceSchemaLocation="http://sumo.dlr.de/xsd/additional_file.xsd">
    <location netOffset="-427547.61,-5092153.53" convBoundary="-2060.54,-8810.30,17119.16,4117.76" origBoundary="-123.961833,45.901133,-123.713558,46.016342" projParameter="+proj=utm +zone=10 +ellps=WGS84 +datum=WGS84 +units=m +no_defs"/>

    <poly id="1010767401" type="building.yes" color="255,230,230" fill="1" layer="-1.00" shape="882.957558,1273.807233 872.396585,1278.152370 867.139531,1265.656680 886.951404,1257.537212 890.376922,1265.720439 881.126051,1269.494757 882.957558,1273.807233"/>
    <poly id="1010767402" type="building.yes" color="255,230,230" fill="1" layer="-1.00" shape="890.452739,1285.610246 890.295385,1278.722560 937.691673,1278.172929 937.770242,1284.950407 890.452739,1285.610246"/>
    <poly id="1010767403" type="building.yes" color="255,230,230" fill="1" layer="-1.00" shape="893.631139,1252.459274 893.590015,1242.236606 934.173966,1241.988222 934.217760,1245.765832 921.128213,1245.806473 921.142237,1253.695911 908.286329,1253.844992 908.269578,1252.400611 893.631139,1252.459274"/>
    <poly id="1010767404" type="building.yes" color="255,230,230" fill="1" layer="-1.00" shape="920.919186,1301.258344 921.165546,1309.145089 905.603062,1309.658926 905.378588,1303.660987 910.178865,1303.494194 910.079515,1301.606287 920.919186,1301.258344"/>
    <poly id="1010767405" type="building.yes" color="255,230,230" fill="1" layer="-1.00" shape="914.949646,1294.104692 899.767904,1294.058522 899.761583,1286.835721 914.943343,1286.881891 914.949646,1294.104692"/>
    <poly id="1010767406" type="building.yes" color="255,230,230" fill="1" layer="-1.00" shape="928.001215,1257.394502 928.101693,1266.060785 905.179241,1266.437715 905.131563,1262.326786 898.471283,1262.404035 898.418446,1257.848681 928.001215,1257.394502"/>
    <poly id="1010767407" type="building.yes" color="255,230,230" fill="1" layer="-1.00" shape="1014.900846,1230.163009 1015.058061,1237.050697 952.484736,1237.997853 952.404897,1231.109269 1014.900846,1230.163009"/>
    <poly id="1010767408" type="building.yes" color="255,230,230" fill="1" layer="-1.00" shape="966.311920,1261.506407 965.963710,1251.509542 986.016880,1250.832714 986.144523,1255.164959 993.421798,1254.858416 993.642325,1260.523038 966.311920,1261.506407"/>
    <poly id="1010767409" type="building.yes" color="255,230,230" fill="1" layer="-1.00" shape="1015.246943,1260.050576 1004.098704,1260.513046 1003.781439,1253.182728 1013.924190,1252.843022 1014.037661,1255.953099 1015.121893,1255.940543 1015.246943,1260.050576"/>
    <poly id="1010767410" type="building.yes" color="255,230,230" fill="1" layer="-1.00" shape="1016.369274,1276.705744 1016.101704,1287.043105 1009.282702,1286.788709 1009.379689,1281.787136 1004.807868,1281.617842 1004.639874,1287.175843 998.054493,1287.029875 998.316885,1276.248089 1016.369274,1276.705744"/>
    <poly id="1010767411" type="building.yes" color="255,230,230" fill="1" layer="-1.00" shape="988.180172,1290.477890 980.051048,1290.794309 979.808625,1283.240882 985.770591,1283.060689 985.659680,1280.172825 987.826849,1280.036598 988.180172,1290.477890"/>
    <poly id="1010767412" type="building.yes" color="255,230,230" fill="1" layer="-1.00" shape="977.454384,1280.601251 977.086263,1288.939600 964.609929,1288.417441 964.900588,1280.079988 977.454384,1280.601251"/>
    <poly id="1010767413" type="building.yes" color="255,230,230" fill="1" layer="-1.00" shape="959.308731,1292.145872 972.631800,1292.213725 972.644674,1293.324787 988.600861,1293.362165 988.592920,1299.362797 959.314982,1299.368673 959.308731,1292.145872"/>
    <poly id="1010767414" type="building.yes" color="255,230,230" fill="1" layer="-1.00" shape="973.684322,1316.203692 961.142186,1316.682393 960.898452,1309.017860 973.441891,1308.650265 973.684322,1316.203692"/>
    <poly id="1010767415" type="building.yes" color="255,230,230" fill="1" layer="-1.00" shape="961.080193,1318.016565 974.549084,1317.304883 975.048307,1326.966637 961.579437,1327.678318 961.080193,1318.016565"/>
    <poly id="1010767416" type="building.yes" color="255,230,230" fill="1" layer="-1.00" shape="982.588933,1322.656667 982.441979,1316.657829 990.107690,1316.457901 990.332081,1322.455842 982.588933,1322.656667"/>
    <poly id="1010767417" type="building.yes" color="255,230,230" fill="1" layer="-1.00" shape="982.277658,1329.216420 990.486751,1329.121318 990.770347,1340.230145 982.485113,1340.437250 982.277658,1329.216420"/>
    <poly id="1010767418" type="building.yes" color="255,230,230" fill="1" layer="-1.00" shape="991.020071,1321.670025 995.588001,1321.505990 995.820109,1328.170568 991.252184,1328.334603 991.020071,1321.670025"/>
    <poly id="1010767419" type="building.yes" color="255,230,230" fill="1" layer="-1.00" shape="998.097940,1337.589478 997.796339,1324.925165 1006.159039,1324.717183 1006.460622,1337.381497 998.097940,1337.589478"/>
    <poly id="1010767420" type="building.yes" color="255,230,230" fill="1" layer="-1.00" shape="1037.364702,1337.357016 1024.357943,1337.840968 1024.156741,1333.842938 1021.755971,1333.870737 1021.518745,1326.761733 1031.583930,1326.422952 1031.696106,1329.421923 1037.115918,1329.248056 1037.364702,1337.357016"/>
    <poly id="1010767421" type="building.yes" color="255,230,230" fill="1" layer="-1.00" shape="1049.963821,1361.880057 1038.969367,1362.229567 1038.837901,1357.564002 1035.741431,1357.710970 1035.524802,1352.379665 1049.694476,1351.993396 1049.963821,1361.880057"/>
    <poly id="1010767422" type="building.yes" color="255,230,230" fill="1" layer="-1.00" shape="1021.252236,1377.324924 1028.761698,1377.015731 1028.995056,1383.791417 1021.563046,1384.099713 1021.252236,1377.324924"/>
    <poly id="1010767423" type="building.yes" color="255,230,230" fill="1" layer="-1.00" shape="1038.212397,1377.128558 1038.133398,1383.685618 1030.852416,1383.658791 1030.930120,1376.990625 1038.212397,1377.128558"/>
    <poly id="1010767424" type="building.yes" color="255,230,230" fill="1" layer="-1.00" shape="1017.721254,1400.145642 1039.405398,1399.894575 1039.492862,1407.449798 1010.374189,1407.786962 1010.206911,1393.343153 1017.641483,1393.257056 1017.721254,1400.145642"/>
    <poly id="1010767425" type="building.yes" color="255,230,230" fill="1" layer="-1.00" shape="1003.753829,1377.860935 1003.668433,1383.862464 997.392929,1383.712910 997.555763,1377.710483 1003.753829,1377.860935"/>
    <poly id="1010767426" type="building.yes" color="255,230,230" fill="1" layer="-1.00" shape="988.313366,1402.264197 988.344258,1404.930746 982.301105,1404.778516 982.470567,1392.664349 996.183210,1392.949977 996.060275,1402.396697 988.313366,1402.264197"/>
    <poly id="1010767427" type="building.yes" color="255,230,230" fill="1" layer="-1.00" shape="995.055242,1389.184924 971.978363,1389.563405 971.608670,1364.343191 994.685644,1363.964710 995.055242,1389.184924"/>
    <poly id="1010767428" type="building.yes" color="255,230,230" fill="1" layer="-1.00" shape="1052.154680,1350.409225 1062.221113,1350.181600 1062.825633,1368.954069 1060.038943,1369.097440 1060.161392,1372.985262 1052.882969,1373.180621 1052.154680,1350.409225"/>
    <poly id="1010767429" type="building.yes" color="255,230,230" fill="1" layer="-1.00" shape="909.809522,1378.505256 908.994371,1348.289755 913.020173,1348.131946 912.897632,1344.244127 915.916663,1344.097995 915.807008,1341.321238 921.614029,1341.142779 921.476033,1335.921685 934.948747,1335.543235 935.200241,1343.874405 932.179922,1343.909421 932.307603,1348.241665 936.488293,1348.082076 936.507614,1349.748669 940.146195,1349.595366 941.012877,1377.587848 909.809522,1378.505256"/>
    <poly id="1010767430" type="building.yes" color="255,230,230" fill="1" layer="-1.00" shape="1038.730278,1274.668909 1052.046950,1274.181403 1052.387305,1283.511635 1039.148097,1283.998244 1038.730278,1274.668909"/>
    <poly id="1010767431" type="building.yes" color="255,230,230" fill="1" layer="-1.00" shape="1056.246942,1188.680687 1037.965822,1188.558920 1038.015248,1179.446420 1051.107504,1179.628241 1051.128079,1181.405940 1056.318255,1181.456992 1056.246942,1188.680687"/>
    <poly id="1010767432" type="building.yes" color="255,230,230" fill="1" layer="-1.00" shape="1046.442595,1211.573981 1029.021163,1212.109018 1028.767223,1203.555635 1046.109947,1202.910388 1046.442595,1211.573981"/>
    <poly id="1010767433" type="building.yes" color="255,230,230" fill="1" layer="-1.00" shape="1014.901561,1176.713759 1015.347723,1188.487427 1007.605693,1188.799325 1007.159516,1177.025657 1014.901561,1176.713759"/>
    <poly id="1010767434" type="building.yes" color="255,230,230" fill="1" layer="-1.00" shape="1012.506666,1190.631627 1012.432832,1197.633110 1009.722225,1197.664500 1009.682093,1200.887477 998.914542,1200.789940 998.983213,1193.344031 1002.701907,1193.412082 1002.745895,1190.522424 1012.506666,1190.631627"/>
    <poly id="1010767435" type="building.yes" color="255,230,230" fill="1" layer="-1.00" shape="989.386125,1200.678067 998.134936,1200.354485 998.341303,1204.796938 989.592499,1205.120520 989.386125,1200.678067"/>
    <poly id="1010767436" type="building.yes" color="255,230,230" fill="1" layer="-1.00" shape="1014.616007,1218.943078 1007.256097,1218.806067 1007.494065,1205.913265 1014.852704,1205.939169 1014.616007,1218.943078"/>
    <poly id="1010767437" type="building.yes" color="255,230,230" fill="1" layer="-1.00" shape="967.488451,1195.931318 972.756063,1195.981403 972.818266,1187.979963 984.824977,1188.063100 984.708263,1204.732617 967.433981,1204.599396 967.488451,1195.931318"/>
    <poly id="1010767438" type="building.yes" color="255,230,230" fill="1" layer="-1.00" shape="982.949747,1220.087701 950.577471,1220.462822 950.406199,1205.685699 957.298877,1205.605814 957.322055,1207.605726 982.801722,1207.310489 982.949747,1220.087701"/>
    <poly id="1010767439" type="building.yes" color="255,230,230" fill="1" layer="-1.00" shape="987.726740,1184.473610 987.870270,1176.804591 993.371523,1176.963109 993.271971,1181.742469 997.920025,1181.799752 997.776482,1189.468770 993.049701,1189.301278 993.073094,1184.633921 987.726740,1184.473610"/>
    <poly id="1010767440" type="building.yes" color="255,230,230" fill="1" layer="-1.00" shape="1026.446946,1190.470211 1050.459066,1190.525610 1050.391618,1198.082624 1026.379528,1198.027225 1026.446946,1190.470211"/>
    <poly id="1010767441" type="building.yes" color="255,230,230" fill="1" layer="-1.00" shape="982.064393,1136.979378 982.666364,1162.196892 971.439215,1162.549210 970.835911,1137.220591 982.064393,1136.979378"/>
    <poly id="1010767442" type="building.yes" color="255,230,230" fill="1" layer="-1.00" shape="942.638880,1136.991762 957.201433,1137.045222 957.032904,1162.605028 942.547859,1162.550672 942.638880,1136.991762"/>
    <poly id="1010767443" type="building.yes" color="255,230,230" fill="1" layer="-1.00" shape="1045.065656,1420.497578 1053.659269,1420.175864 1054.004765,1429.950523 1045.409879,1430.161130 1045.065656,1420.497578"/>
    <poly id="1010767444" type="building.yes" color="255,230,230" fill="1" layer="-1.00" shape="1064.556595,1424.827951 1064.797628,1432.270276 1059.145578,1432.446809 1058.904537,1425.004484 1064.556595,1424.827951"/>
    <poly id="119407750" type="amenity.townhall" color="237,199,199" fill="1" layer="-1.00" shape="1190.280236,1525.505653 1174.873426,1488.502548 1157.444636,1495.704590 1172.851663,1532.718763 1190.280236,1525.505653"/>
    <poly id="119407750#1" type="building.yes" color="255,230,230" fill="1" layer="-1.00" shape="1190.280236,1525.505653 1174.873426,1488.502548 1157.444636,1495.704590 1172.851663,1532.718763 1190.280236,1525.505653"/>
    <poly id="119407751" type="building.yes" color="255,230,230" fill="1" layer="-1.00" shape="471.616257,1625.736225 471.195828,1614.929021 467.873620,1614.967790 467.700652,1600.146217 471.310177,1600.170768 471.366107,1600.981301 480.079896,1601.024080 483.224646,1601.042949 483.297848,1588.729847 480.005954,1588.712695 471.439285,1588.668198 471.489580,1590.323320 468.180642,1590.173028 468.135731,1575.705549 471.835478,1575.495692 471.862818,1565.227759 435.373960,1565.120280 444.457101,1608.740505 444.459649,1626.208758 471.616257,1625.736225"/>
    <poly id="119407751#1" type="tourism.hotel" color="207,245,201" fill="1" layer="-2.00" shape="471.616257,1625.736225 471.195828,1614.929021 467.873620,1614.967790 467.700652,1600.146217 471.310177,1600.170768 471.366107,1600.981301 480.079896,1601.024080 483.224646,1601.042949 483.297848,1588.729847 480.005954,1588.712695 471.439285,1588.668198 471.489580,1590.323320 468.180642,1590.173028 468.135731,1575.705549 471.835478,1575.495692 471.862818,1565.227759 435.373960,1565.120280 444.457101,1608.740505 444.459649,1626.208758 471.616257,1625.736225"/>
    <poly id="119407752" type="amenity.fast_food" color="237,199,199" fill="1" layer="-1.00" shape="1149.150132,1452.207662 1148.940473,1437.419870 1176.842247,1437.019632 1176.908445,1441.408149 1183.498701,1441.320894 1183.592920,1447.464800 1176.282453,1447.560377 1176.339366,1451.815656 1149.150132,1452.207662"/>
    <poly id="119407752#1" type="building.yes" color="255,230,230" fill="1" layer="-1.00" shape="1149.150132,1452.207662 1148.940473,1437.419870 1176.842247,1437.019632 1176.908445,1441.408149 1183.498701,1441.320894 1183.592920,1447.464800 1176.282453,1447.560377 1176.339366,1451.815656 1149.150132,1452.207662"/>
    <poly id="119407754" type="building.yes" color="255,230,230" fill="1" layer="-1.00" shape="1220.977781,1343.345950 1164.813337,1343.150214 1161.877693,1343.139691 1162.172395,1262.073483 1213.945672,1262.253245 1213.956425,1259.830683 1216.791429,1259.842394 1216.737604,1274.633222 1226.195168,1274.657365 1225.942844,1343.366405 1220.977781,1343.345950"/>
    <poly id="119407754#1" type="shop.supermarket" color="237,199,255" fill="1" layer="-1.00" shape="1220.977781,1343.345950 1164.813337,1343.150214 1161.877693,1343.139691 1162.172395,1262.073483 1213.945672,1262.253245 1213.956425,1259.830683 1216.791429,1259.842394 1216.737604,1274.633222 1226.195168,1274.657365 1225.942844,1343.366405 1220.977781,1343.345950"/>
    <poly id="119416555" type="amenity.restaurant" color="237,199,199" fill="1" layer="-1.00" shape="1032.596989,1246.670726 1032.732296,1232.934593 1057.373743,1233.171635 1057.238381,1246.907767 1047.059627,1246.814446 1047.039652,1249.103771 1038.169982,1249.017536 1038.189954,1246.728211 1032.596989,1246.670726"/>
    <poly id="119416555#1" type="building.yes" color="255,230,230" fill="1" layer="-1.00" shape="1032.596989,1246.670726 1032.732296,1232.934593 1057.373743,1233.171635 1057.238381,1246.907767 1047.059627,1246.814446 1047.039652,1249.103771 1038.169982,1249.017536 1038.189954,1246.728211 1032.596989,1246.670726"/>
    <poly id="119416868" type="natural.water" color="181,209,209" fill="1" layer="-4.00" shape="1024.874808,30.818799 1029.127377,39.470346 1040.423265,45.551282 1049.825952,50.042889 1058.987633,53.792789 1059.436698,57.787945 1057.323245,61.934979 1056.596778,67.443866 1061.581301,73.075591 1068.159750,79.877875 1077.856619,83.688284 1095.057899,89.967710 1104.829470,96.221956 1106.465536,103.048086 1106.550204,121.093133 1101.647974,122.572157 1099.030679,119.324353 1084.569789,112.190931 1076.640396,102.448440 1064.262499,94.568686 1048.353399,84.807422 1040.297342,70.821625 1016.613423,53.316391 999.846166,58.444269 991.849839,67.693218 1010.487737,80.278555 1016.629614,90.186112 1020.130115,105.480275 1025.380395,92.573931 1033.658270,89.577872 1037.285840,97.781062 1029.894271,105.733961 1039.272833,108.147870 1054.830708,123.713683 1063.933746,138.476345 1058.375308,160.909281 1045.246374,175.151312 1050.287425,179.648940 1055.020355,193.673196 1040.468889,193.430422 1021.655301,183.702842 1015.691912,189.205683 1007.418471,209.969952 1006.227783,250.987354 1001.646922,286.232389 1004.653006,312.355449 1013.439909,317.220824 1021.647481,308.847302 1038.814880,301.536866 1045.913354,287.020116 1052.613272,255.462039 1061.565777,256.558568 1079.640833,258.049637 1096.955451,262.783168 1098.312619,272.290535 1099.509082,285.989018 1112.438149,289.984344 1144.658503,290.789818 1154.949760,282.381290 1154.987394,267.535108 1159.213861,255.851924 1152.092294,247.611251 1150.479900,227.405885 1142.547977,222.786014 1136.027581,220.316697 1132.827394,216.231097 1136.505068,210.688112 1143.174868,208.655309 1149.091613,209.164769 1156.265053,216.526985 1159.406435,215.523941 1165.056194,210.358226 1166.839972,194.436227 1164.280344,177.397634 1161.647279,171.438638 1169.596015,168.791037 1174.539207,170.189623 1177.749220,168.419063 1179.508060,166.431910 1187.074823,163.577614 1180.573575,158.074430 1174.649393,163.632221 1172.271268,165.659865 1156.187550,170.257159 1148.285341,170.226227 1142.405020,168.849603 1139.530136,160.737666 1132.138853,142.577040 1126.590066,136.373954 1119.665886,133.831534 1114.211155,130.405393 1113.651423,127.556058 1116.475332,123.211925 1118.335683,111.911655 1117.115988,104.914028 1114.505178,96.865722 1111.409981,93.156730 1105.286653,88.860470 1092.257162,86.266435 1077.799822,78.777399 1068.317964,76.142384 1063.859905,65.793040 1061.821984,59.727191 1062.163563,55.100612 1068.406206,57.650852 1085.182453,70.713541 1098.993469,79.254604 1111.898947,81.172250 1125.979738,76.864684 1126.574079,56.567150 1119.774782,43.389021 1117.156111,32.651681 1112.533281,28.149164 1100.456393,26.210822 1096.975323,12.583207 1091.408649,-1.853697 1086.685175,-15.055793 1087.881512,-18.792175 1075.303001,-28.592025 1066.461081,-38.846219 1046.968502,-34.887057 1041.467199,-29.600724 1029.887826,-28.033268 1022.054151,-24.797884 1009.565242,-31.531703 1003.151739,-41.469446 998.326637,-50.047674 992.788730,-51.939281 976.848393,-50.976843 977.759454,-57.265724 951.784707,-55.786967 936.328127,-47.173799 926.945690,-45.887187 915.466795,-50.354546 899.600368,-56.382270 869.442404,-58.888353 844.759426,-54.912795 825.486017,-32.742753 802.024450,-12.990910 793.121474,0.224732 789.216977,10.237621 789.526026,12.834262 785.582322,38.148966 781.556463,55.719496 783.852694,67.993921 790.627572,73.671313 807.029939,79.170263 818.755980,88.257181 824.521771,93.101803 836.436896,101.797636 838.151422,113.356544 848.925846,125.232584 868.451441,124.172656 877.836973,122.508101 886.805525,114.947873 891.759264,117.246193 891.614815,122.159413 890.717532,129.626033 897.216370,129.550676 901.521356,127.345014 906.219070,124.934786 912.249969,118.575424 909.863888,82.488783 905.114937,63.108789 908.383934,56.403635 913.925489,59.284099 923.120204,70.556302 929.218261,87.364892 938.770722,96.088303 946.867862,95.549993 952.469865,88.273339 952.967680,80.422435 948.658791,70.260347 945.243921,59.698980 949.704928,53.568978 956.210668,54.082545 967.468768,56.896832 980.296287,57.426097 987.239400,28.809846 982.903258,12.947550 983.931564,-0.609994 991.237009,-16.007048 989.385827,-22.663977 986.224148,-23.405211 982.302756,-22.181919 977.443030,-17.025190 971.108093,-19.507599 969.645248,-26.746849 972.334667,-32.667406 976.197001,-38.990469 981.450407,-44.940716 993.470579,-43.902025 1001.464313,-33.982588 1009.694761,-20.343331 1017.927489,-6.504073 1019.600931,1.532820 1024.874808,30.818799"/>
    <poly id="119527677" type="building.yes" color="255,230,230" fill="1" layer="-1.00" shape="508.311557,1800.946578 507.965795,1771.303422 496.837842,1771.433230 496.859618,1773.299815 477.523159,1773.525423 477.628436,1782.547253 481.796645,1801.255909 508.311557,1800.946578"/>
    <poly id="119527677#1" type="tourism.aquarium" color="207,245,201" fill="1" layer="-2.00" shape="508.311557,1800.946578 507.965795,1771.303422 496.837842,1771.433230 496.859618,1773.299815 477.523159,1773.525423 477.628436,1782.547253 481.796645,1801.255909 508.311557,1800.946578"/>
    <poly id="119527678" type="amenity.post_office" color="237,199,199" fill="1" layer="-1.00" shape="635.745926,1487.621723 635.651627,1479.522079 635.542082,1470.778109 637.780171,1470.752053 639.065717,1470.737087 638.952926,1461.048624 663.231200,1460.766030 663.497551,1482.987186 659.455059,1483.034233 659.504715,1487.300712 647.903854,1487.435740 647.966580,1492.824392 641.933828,1492.894619 641.871614,1487.550409 635.745926,1487.621723"/>
    <poly id="119527678#1" type="building.yes" color="255,230,230" fill="1" layer="-1.00" shape="635.745926,1487.621723 635.651627,1479.522079 635.542082,1470.778109 637.780171,1470.752053 639.065717,1470.737087 638.952926,1461.048624 663.231200,1460.766030 663.497551,1482.987186 659.455059,1483.034233 659.504715,1487.300712 647.903854,1487.435740 647.966580,1492.824392 641.933828,1492.894619 641.871614,1487.550409 635.745926,1487.621723"/>
    <poly id="119613068" type="amenity.bank" color="237,199,199" fill="1" layer="-1.00" shape="617.769042,1444.382617 630.737032,1441.253566 629.597981,1436.555286 633.567813,1435.586759 628.402193,1414.344952 626.532982,1414.788977 623.823845,1403.630609 610.407772,1406.864899 613.482895,1419.519138 611.830010,1419.916199 617.769042,1444.382617"/>
    <poly id="119613068#1" type="building.yes" color="255,230,230" fill="1" layer="-1.00" shape="617.769042,1444.382617 630.737032,1441.253566 629.597981,1436.555286 633.567813,1435.586759 628.402193,1414.344952 626.532982,1414.788977 623.823845,1403.630609 610.407772,1406.864899 613.482895,1419.519138 611.830010,1419.916199 617.769042,1444.382617"/>
    <poly id="119613069" type="amenity.bank" color="237,199,199" fill="1" layer="-1.00" shape="673.802015,1434.673978 673.851903,1444.952115 690.828670,1444.865717 690.808452,1439.798823 695.548347,1439.777021 695.492131,1426.954282 691.100720,1426.972030 691.075075,1421.438490 691.070540,1420.382890 683.929634,1420.410405 683.935850,1421.610442 683.961749,1426.499476 665.722480,1426.589471 665.755042,1434.712057 673.802015,1434.673978"/>
    <poly id="119613069#1" type="building.yes" color="255,230,230" fill="1" layer="-1.00" shape="673.802015,1434.673978 673.851903,1444.952115 690.828670,1444.865717 690.808452,1439.798823 695.548347,1439.777021 695.492131,1426.954282 691.100720,1426.972030 691.075075,1421.438490 691.070540,1420.382890 683.929634,1420.410405 683.935850,1421.610442 683.961749,1426.499476 665.722480,1426.589471 665.755042,1434.712057 673.802015,1434.673978"/>
    <poly id="119613696" type="amenity.community_centre" color="237,199,199" fill="1" layer="-1.00" shape="813.248353,1687.353898 813.264900,1675.441507 823.294792,1675.447259 823.351405,1622.964038 756.464016,1622.907717 756.411966,1674.401919 768.649288,1674.415261 768.636575,1687.316588 813.248353,1687.353898"/>
    <poly id="119613696#1" type="building.public" color="255,230,230" fill="1" layer="-1.00" shape="813.248353,1687.353898 813.264900,1675.441507 823.294792,1675.447259 823.351405,1622.964038 756.464016,1622.907717 756.411966,1674.401919 768.649288,1674.415261 768.636575,1687.316588 813.248353,1687.353898"/>
    <poly id="119615319" type="amenity.parking" color="184,184,179" fill="1" layer="-1.00" shape="617.147185,1685.612003 669.876751,1685.064808 669.815176,1678.442694 687.487226,1678.259285 687.556526,1684.881308 735.872019,1684.386035 735.293479,1627.965375 690.601891,1628.429594 690.692385,1636.873759 662.619706,1637.155972 662.536918,1628.711716 616.567430,1629.180232 617.147185,1685.612003"/>
    <poly id="119615320" type="building.yes" color="255,230,230" fill="1" layer="-1.00" shape="658.082583,1532.810318 657.772750,1518.168139 657.638380,1511.946910 654.703586,1512.003293 654.650351,1509.425899 652.164849,1509.488165 652.133971,1508.166182 612.836522,1509.001532 613.628301,1546.395743 640.543894,1545.815648 640.272919,1533.184311 658.082583,1532.810318"/>
    <poly id="119615320#1" type="leisure.amusement_arcade" color="207,245,201" fill="1" layer="-2.00" shape="658.082583,1532.810318 657.772750,1518.168139 657.638380,1511.946910 654.703586,1512.003293 654.650351,1509.425899 652.164849,1509.488165 652.133971,1508.166182 612.836522,1509.001532 613.628301,1546.395743 640.543894,1545.815648 640.272919,1533.184311 658.082583,1532.810318"/>
    <poly id="119616171" type="amenity.parking" color="184,184,179" fill="1" layer="-1.00" shape="526.684404,1619.126638 526.194981,1589.774083 525.746468,1563.265759 516.779403,1563.425886 483.164039,1563.984679 483.225417,1567.917659 487.585106,1567.844570 488.394449,1615.972905 482.741664,1616.072194 482.836680,1621.560481 488.775990,1621.457850 488.740669,1619.758105 526.684404,1619.126638"/>
    <poly id="119616171#1" type="building.yes" color="255,230,230" fill="1" layer="-1.00" shape="526.684404,1619.126638 526.194981,1589.774083 525.746468,1563.265759 516.779403,1563.425886 483.164039,1563.984679 483.225417,1567.917659 487.585106,1567.844570 488.394449,1615.972905 482.741664,1616.072194 482.836680,1621.560481 488.775990,1621.457850 488.740669,1619.758105 526.684404,1619.126638"/>
    <poly id="119616172" type="building.yes" color="255,230,230" fill="1" layer="-1.00" shape="682.354056,1613.179703 690.833559,1613.058824 691.638943,1613.049454 692.490791,1613.039544 704.029204,1612.883097 705.740644,1612.863190 707.382259,1612.832984 711.014230,1612.790741 731.365141,1612.509632 731.376251,1613.465146 736.665324,1613.392539 736.579951,1607.381870 735.859751,1607.390244 735.740016,1598.424149 735.588639,1587.402679 735.562158,1585.125001 735.529353,1582.969630 735.236282,1561.093260 736.668947,1561.076604 736.623097,1557.799059 729.816253,1557.900425 729.832272,1559.278143 723.443485,1559.363543 717.008232,1559.449490 712.160529,1559.516980 712.135987,1558.072689 709.487490,1558.103492 708.062567,1558.120065 706.637645,1558.136639 703.052236,1558.189454 703.069166,1559.644946 700.397437,1559.676023 685.304493,1559.884941 685.287042,1558.385007 683.374239,1558.407262 681.616447,1558.438826 681.633770,1559.927650 681.830993,1574.215552 681.984276,1585.392571 682.014785,1588.014678 682.354056,1613.179703"/>
    <poly id="119616172#1" type="shop.mall" color="237,199,255" fill="1" layer="-1.00" shape="682.354056,1613.179703 690.833559,1613.058824 691.638943,1613.049454 692.490791,1613.039544 704.029204,1612.883097 705.740644,1612.863190 707.382259,1612.832984 711.014230,1612.790741 731.365141,1612.509632 731.376251,1613.465146 736.665324,1613.392539 736.579951,1607.381870 735.859751,1607.390244 735.740016,1598.424149 735.588639,1587.402679 735.562158,1585.125001 735.529353,1582.969630 735.236282,1561.093260 736.668947,1561.076604 736.623097,1557.799059 729.816253,1557.900425 729.832272,1559.278143 723.443485,1559.363543 717.008232,1559.449490 712.160529,1559.516980 712.135987,1558.072689 709.487490,1558.103492 708.062567,1558.120065 706.637645,1558.136639 703.052236,1558.189454 703.069166,1559.644946 700.397437,1559.676023 685.304493,1559.884941 685.287042,1558.385007 683.374239,1558.407262 681.616447,1558.438826 681.633770,1559.927650 681.830993,1574.215552 681.984276,1585.392571 682.014785,1588.014678 682.354056,1613.179703"/>
    <poly id="119616173" type="amenity.parking" color="184,184,179" fill="1" layer="-1.00" shape="588.266794,1464.305818 526.577164,1465.124817 515.658013,1465.274368 516.346216,1516.982214 589.194458,1516.010868 589.130797,1511.211169 594.025004,1511.143041 593.460389,1469.323558 588.266794,1464.305818"/>
    <poly id="119616173#1" type="building.yes" color="255,230,230" fill="1" layer="-1.00" shape="588.266794,1464.305818 526.577164,1465.124817 515.658013,1465.274368 516.346216,1516.982214 589.194458,1516.010868 589.130797,1511.211169 594.025004,1511.143041 593.460389,1469.323558 588.266794,1464.305818"/>
    <poly id="119616174" type="amenity.cinema" color="237,199,199" fill="1" layer="-1.00" shape="574.610839,1548.639323 595.589372,1548.361571 595.199663,1518.896737 574.213285,1519.174581 574.610839,1548.639323"/>
    <poly id="119616174#1" type="building.yes" color="255,230,230" fill="1" layer="-1.00" shape="574.610839,1548.639323 595.589372,1548.361571 595.199663,1518.896737 574.213285,1519.174581 574.610839,1548.639323"/>
    <poly id="119616175" type="building.yes" color="255,230,230" fill="1" layer="-1.00" shape="429.364417,1550.589094 516.786385,1549.413402 516.346216,1516.982214 515.658013,1465.274368 421.040562,1466.545180 421.364321,1490.954765 433.174015,1490.794649 433.139250,1487.817002 501.441980,1486.897700 501.581232,1497.508164 493.643663,1497.622978 493.883702,1515.544052 501.782656,1515.440800 501.969698,1529.484357 477.119007,1529.807607 477.012347,1521.330291 428.983902,1521.979781 429.364417,1550.589094"/>