<tazs>
    <taz id="0_0" shape="-499.0,-499.0 499.0,-499.0 499.0,499.0 -499.0,499.0 -499.0,-499.0" color="15,0,255" edges="-5319479#0 -5319479#1 -5319946#0 -5320282#1 -5320282#2 -5320282#3 -5320282#4 -5320282#5 -827438336#0 -827438336#1 -827438338#0 -827438338#1 -827438338#2 -827438339#0 -827438341#1 -832995799#0 -832995799#1 -832995801#0 -832995801#1 5319479#0 5319479#1 5319479#2 5319946#0 5320282#1 5320282#2 5320282#3 5320282#4 5320282#5 827438336#0 827438336#1 827438338#0 827438338#1 827438338#2 827438339#0 827438341#1 832995799#0 832995799#1 832995801#0 832995801#1"/>
    <taz id="0_1" shape="-499.0,501.0 499.0,501.0 499.0,1499.0 -499.0,1499.0 -499.0,501.0" color="168,255,0" edges="-246068955#0 -246068955#1 -246068955#10 -246068955#13 -246068955#14 -246068955#15 -246068955#16 -246068955#2 -246068955#4 -246068955#7 -246068955#8 -246068955#9 -5317026#0 -5317026#1 -5317026#2 -5319479#11 -5319479#2 -5319479#3 -5319479#4 -5319479#5 -5319479#8 -5319951#10 -5319951#11 -5319951#7 -5320062#7 -5320062#8 -5320104#1 -5320104#4 -5320104#5 -5320117#0 -5320155#0 -5320155#3 -5320155#4 -551574247#0 -551574247#1 -551574249 -66646830#11 -827438339#1 -832995799#2 -832995799#3 -832995799#4 246068955#0 246068955#1 246068955#10 246068955#13 246068955#14 246068955#15 246068955#16 246068955#2 246068955#4 246068955#7 246068955#8 246068955#9 5317026#0 5317026#1 5317026#2 5319479#11 5319479#3 5319479#4 5319479#5 5319479#8 5319951#10 5319951#11 5320062#7 5320062#8 5320104#4 5320104#5 5320117#0 5320155#0 5320155#3 5320155#4 551574247#0 551574247#1 551574249 66646830#11 827438339#1 832995799#2 832995799#3 832995799#4"/>
    <taz id="0_2" shape="-499.0,1501.0 499.0,1501.0 499.0,2499.0 -499.0,2499.0 -499.0,1501.0" color="107,0,255" edges="-5318556#6 -5318556#8 -5318931#5 -551574244#0 -551574244#1 -66648396#1 -66648396#2 -832995796#0 -832995796#1 5313459 5318556#8 551574244#0 551574244#1 66648396#2 832995796#1 883773973#0 883773973#1"/>
    <taz id="1_0" shape="501.0,-499.0 1499.0,-499.0 1499.0,499.0 501.0,499.0 501.0,-499.0" color="89,255,0" edges="-237758605#0 -237758605#1 -237758605#2 -237758605#3 -246078324#0 -246078324#1 -5315922#0 -5315922#1 -5319946#1 -5319946#2 -5320262#0 -5320262#1 -5320267#0 -5320271 -5320281 -5320282#0 -827438340#0 -827438341#0 -830855650#0 -830855650#1 237758605#1 237758605#2 237758605#3 246078324#0 246078324#1 5315922#0 5315922#1 5319946#1 5319946#2 5320262#0 5320262#1 5320267#0 5320267#1 5320271 5320281 5320282#0 827438340#0 827438340#1 827438341#0 830855650#0 830855650#1 832995801#2"/>
    <taz id="1_1" shape="501.0,501.0 1499.0,501.0 1499.0,1499.0 501.0,1499.0 501.0,501.0" color="0,42,255" edges="-228742247#0 -228742247#1 -228742247#2 -228742247#3 -228742247#5 -228742247#8 -228742247#9 -228742250#0 -228742250#1 -228742250#2 -228742250#3 -228742250#4 -228742250#5 -228742250#6 -228742250#7 -228742250#8 -246068954 -246078316#0 -246078316#1 -246084779 -246084782 -246084789 -246086290#0 -246086290#1 -246086290#2 -246086290#3 -246086290#4 -246086290#5 -369429841#0 -369429841#1 -369429841#10 -369429841#2 -369429841#3 -369429841#4 -369429841#5 -369429841#6 -369429841#8 -369429841#9 -423055513#0 -423055513#2 -423055513#3 -423055513#4 -423055513#5 -50533514 -5315924 -5316490 -5317346#0 -5317346#1 -5317346#2 -5318106#0 -5318106#1 -5318889#1 -5318889#10 -5318889#11 -5318889#12 -5318889#13 -5318889#14 -5318889#15 -5318889#16 -5318889#17 -5318889#18 -5318889#19 -5318889#2 -5318889#3 -5318889#4 -5318889#5 -5318889#6 -5318889#7 -5318889#8 -5318889#9 -5318919#0 -5318919#1 -5318919#2 -5318919#3 -5318919#4 -5318919#5 -5318919#6 -5319379#0 -5319379#1 -5319379#2 -5319479#12 -5319479#13 -5319479#14 -5319480#0 -5319480#1 -5319595#0 -5319595#1 -5319595#2 -5319595#3 -5319595#4 -5319595#5 -5319846#0 -5319846#1 -5319846#12 -5319846#2 -5319846#3 -5319846#4 -5319846#5 -5319846#6 -5319846#7 -5319846#8 -5319846#9 -5319914 -5319927#0 -5319927#1 -5319928#1 -5319928#2 -5319932 -5319948#1 -5319948#2 -5319948#3 -5319948#4 -5319948#5 -5319951#1 -5319951#2 -5319951#5 -5319953#0 -5319953#1 -5319997#0 -5319997#1 -5319997#2 -5319997#4 -5319997#5 -5319997#7 -5319997#8 -5320020 -5320021#0 -5320021#1 -5320022#0 -5320022#1 -5320022#2 -5320022#3 -5320027#0 -5320027#1 -5320027#2 -5320027#3 -5320027#4 -5320027#5 -5320028 -5320062#0 -5320062#2 -5320062#4 -5320063#0 -5320063#1 -5320063#3 -5320063#4 -5320063#5 -5320091#0 -5320091#1 -5320103#0 -5320103#1 -5320103#3 -5320103#4 -5320104#0 -5320141#0 -5320141#2 -5320141#5 -5320141#6 -5320183 -5320184 -5320561#0 -5320561#1 -5320561#2 -5320561#3 -5320561#4 -5320561#5 -5320561#6 -5320561#7 -551574248#0 -551574250#0 -551574250#1 -626798594#0 -626798594#1 -626798594#2 -66646830#0 -66646830#1 -66646830#4 -66646830#5 -66646830#8 -66647659#0 -66647659#1 -66647659#11 -66647659#12 -66647659#2 -66647659#5 -66647659#7 -66647659#9 -66647900#0 -827438339#10 -827438339#12 -827438339#2 -827438339#3 -827438339#4 -827438339#6 -827438339#7 -827438339#9 -827438340#1 -827438340#2 -827438340#3 -830855650#2 -830855650#3 -830855650#4 -830855650#5 -832995801#2 228742247#0 228742247#1 228742247#2 228742247#3 228742247#5 228742247#8 228742247#9 228742250#0 228742250#1 228742250#2 228742250#3 228742250#4 228742250#5 228742250#6 228742250#7 228742250#8 246068954 246078316#0 246078316#1 246084779 246084782 246084789 246086290#0 246086290#1 246086290#2 246086290#3 246086290#4 246086290#5 369429841#0 369429841#1 369429841#10 369429841#2 369429841#3 369429841#4 369429841#5 369429841#6 369429841#8 369429841#9 423055513#0 423055513#2 423055513#3 423055513#4 423055513#5 50533514 5315924 5316490 5317346#0 5317346#1 5317346#2 5318106#0 5318106#1 5318889#1 5318889#10 5318889#11 5318889#12 5318889#13 5318889#14 5318889#15 5318889#16 5318889#17 5318889#18 5318889#19 5318889#2 5318889#3 5318889#4 5318889#5 5318889#6 5318889#7 5318889#8 5318889#9 5318919#0 5318919#1 5318919#2 5318919#3 5318919#4 5318919#5 5318919#6 5319379#0 5319379#1 5319379#2 5319479#12 5319479#13 5319479#14 5319480#0 5319480#1 5319595#0 5319595#1 5319595#2 5319595#3 5319595#4 5319595#5 5319846#0 5319846#1 5319846#12 5319846#2 5319846#3 5319846#4 5319846#5 5319846#6 5319846#7 5319846#8 5319846#9 5319914 5319927#0 5319927#1 5319928#1 5319928#2 5319932 5319948#1 5319948#2 5319948#3 5319948#4 5319948#5 5319951#1 5319951#2 5319951#5 5319951#7 5319953#0 5319953#1 5319997#0 5319997#1 5319997#2 5319997#4 5319997#5 5319997#7 5319997#8 5320020 5320021#0 5320021#1 5320022#0 5320022#1 5320022#2 5320022#3 5320022#4 5320027#0 5320027#1 5320027#2 5320027#3 5320027#4 5320027#5 5320028 5320062#0 5320062#2 5320062#4 5320063#0 5320063#1 5320063#3 5320063#4 5320063#5 5320091#0 5320091#1 5320103#0 5320103#1 5320103#3 5320103#4 5320104#0 5320104#1 5320141#0 5320141#2 5320141#5 5320141#6 5320183 5320184 5320561#0 5320561#1 5320561#2 5320561#3 5320561#4 5320561#5 5320561#6 5320561#7 5320561#8 551574248#0 551574248#1 551574250#0 551574250#1 626798594#0 626798594#1 626798594#2 66646830#1 66646830#4 66646830#5 66646830#8 66647659#0 66647659#1 66647659#11 66647659#12 66647659#2 66647659#5 66647659#7 66647659#9 66647900#0 827438339#10 827438339#12 827438339#2 827438339#3 827438339#4 827438339#6 827438339#7 827438339#9 827438340#2 827438340#3 830855650#2 830855650#3 830855650#4 830855650#5"/>
    <taz id="1_2" shape="501.0,1501.0 1499.0,1501.0 1499.0,2499.0 501.0,2499.0 501.0,1501.0" color="255,38,0" edges="-228742250#9 -237758610#0 -237758610#1 -237758610#2 -237758610#3 -237758610#6 -237758610#7 -369436865#0 -369436865#1 -369436865#2 -5315916#0 -5317509#0 -5317509#2 -5317509#4 -5317725#0 -5317725#1 -5317904#0 -5317904#1 -5317904#2 -5317904#3 -5317904#4 -5317944#0 -5317944#1 -5317944#3 -5317944#4 -5317944#5 -5317944#6 -5317944#7 -5318556#0 -5318556#1 -5318556#2 -5318556#3 -5318556#4 -5318556#5 -5318557#0 -5318557#1 -5318557#2 -5318557#3 -5318557#4 -5318557#5 -5318889#0 -5318928#0 -5318928#1 -5318928#2 -5318928#3 -5318931#0 -5318931#1 -5318931#2 -5318931#3 -5319480#2 -5320037#0 -5320037#1 -5320037#2 -5320037#3 -5320037#4 -5320037#5 -5320561#8 -551574243#1 -551574243#2 -551574244#2 -551574244#3 -551574245#0 -551574245#1 -551574248#1 -551574248#2 -551574251#0 -551574251#1 -624107797#0 -624107797#1 -624107797#2 -66646826 -66646829#0 -66646829#1 -66648396#0 -66648398#0 -66648398#1 -66648398#2 -66648398#3 -832995794#0 -832995794#1 -832995797#0 -832995797#1 -832995798#0 -832995798#1 -832995798#2 -832995798#3 228742250#9 237758610#0 237758610#1 237758610#2 237758610#3 237758610#6 237758610#7 369436865#0 369436865#1 369436865#2 5315916#0 5317509#0 5317509#2 5317509#4 5317725#0 5317725#1 5317891 5317904#0 5317904#1 5317904#2 5317904#3 5317904#4 5317944#0 5317944#1 5317944#3 5317944#4 5317944#5 5317944#6 5317944#7 5318556#0 5318556#1 5318556#2 5318556#3 5318556#4 5318556#5 5318556#6 5318557#0 5318557#1 5318557#2 5318557#3 5318557#4 5318557#5 5318889#0 5318928#0 5318928#1 5318928#2 5318928#3 5318931#0 5318931#1 5318931#2 5318931#3 5318931#5 5319480#2 5320037#0 5320037#1 5320037#2 5320037#3 5320037#4 5320037#5 5320037#6 551574243#1 551574243#2 551574244#2 551574244#3 551574245#0 551574245#1 551574248#2 551574251#0 551574251#1 624107797#0 624107797#1 624107797#2 66646828 66646829#0 66646829#1 66646831#0 66646831#1 66648396#0 66648396#1 66648398#0 66648398#1 66648398#2 66648398#3 66648399#0 66648399#1 66648399#2 832995794#0 832995794#1 832995796#0 832995797#0 832995797#1 832995798#0 832995798#1 832995798#2 832995798#3"/>
    <taz id="2_1" shape="1501.0,501.0 2499.0,501.0 2499.0,1499.0 1501.0,1499.0 1501.0,501.0" color="255,0,165" edges="-5319482 5319482"/>
</tazs>
