<?xml version="1.0" encoding="UTF-8"?>

<!-- generated on 2022-03-25 16:14:25 by Eclipse SUMO polyconvert Version 1.11.0
<configuration xmlns:xsi="http://www.w3.org/2001/XMLSchema-instance" xsi:noNamespaceSchemaLocation="http://sumo.dlr.de/xsd/polyconvertConfiguration.xsd">

    <input>
        <net-file value="osm.net.xml"/>
        <osm-files value="osm_bbox.osm.xml"/>
        <osm.keep-full-type value="true"/>
        <type-file value="C:\Program%20Files%20(x86)\Eclipse\Sumo\data\typemap\osmPolyconvert.typ.xml"/>
    </input>

    <output>
        <output-file value="osm.poly.xml"/>
    </output>

    <processing>
        <poi-layer-offset value="5"/>
    </processing>

    <report>
        <verbose value="true"/>
    </report>

</configuration>
-->

<additional xmlns:xsi="http://www.w3.org/2001/XMLSchema-instance" xsi:noNamespaceSchemaLocation="http://sumo.dlr.de/xsd/additional_file.xsd">
    <location netOffset="-427291.71,-5091470.40" convBoundary="-1804.64,-8215.64,26484.94,9401.75" origBoundary="-123.961833,45.901133,-123.596553,46.057899" projParameter="+proj=utm +zone=10 +ellps=WGS84 +datum=WGS84 +units=m +no_defs"/>

    <poly id="1010767401" type="building.yes" color="255,230,230" fill="1" layer="-1.00" shape="1138.857558,1956.937233 1128.296585,1961.282370 1123.039531,1948.786680 1142.851404,1940.667212 1146.276922,1948.850439 1137.026051,1952.624757 1138.857558,1956.937233"/>
    <poly id="1010767402" type="building.yes" color="255,230,230" fill="1" layer="-1.00" shape="1146.352739,1968.740246 1146.195385,1961.852560 1193.591673,1961.302929 1193.670242,1968.080407 1146.352739,1968.740246"/>
    <poly id="1010767403" type="building.yes" color="255,230,230" fill="1" layer="-1.00" shape="1149.531139,1935.589274 1149.490015,1925.366606 1190.073966,1925.118222 1190.117760,1928.895832 1177.028213,1928.936473 1177.042237,1936.825911 1164.186329,1936.974992 1164.169578,1935.530611 1149.531139,1935.589274"/>
    <poly id="1010767404" type="building.yes" color="255,230,230" fill="1" layer="-1.00" shape="1176.819186,1984.388344 1177.065546,1992.275089 1161.503062,1992.788926 1161.278588,1986.790987 1166.078865,1986.624194 1165.979515,1984.736287 1176.819186,1984.388344"/>
    <poly id="1010767405" type="building.yes" color="255,230,230" fill="1" layer="-1.00" shape="1170.849646,1977.234692 1155.667904,1977.188522 1155.661583,1969.965721 1170.843343,1970.011891 1170.849646,1977.234692"/>
    <poly id="1010767406" type="building.yes" color="255,230,230" fill="1" layer="-1.00" shape="1183.901215,1940.524502 1184.001693,1949.190785 1161.079241,1949.567715 1161.031563,1945.456786 1154.371283,1945.534035 1154.318446,1940.978681 1183.901215,1940.524502"/>
    <poly id="1010767407" type="building.yes" color="255,230,230" fill="1" layer="-1.00" shape="1270.800846,1913.293009 1270.958061,1920.180697 1208.384736,1921.127853 1208.304897,1914.239269 1270.800846,1913.293009"/>
    <poly id="1010767408" type="building.yes" color="255,230,230" fill="1" layer="-1.00" shape="1222.211920,1944.636407 1221.863710,1934.639542 1241.916880,1933.962714 1242.044523,1938.294959 1249.321798,1937.988416 1249.542325,1943.653038 1222.211920,1944.636407"/>
    <poly id="1010767409" type="building.yes" color="255,230,230" fill="1" layer="-1.00" shape="1271.146943,1943.180576 1259.998704,1943.643046 1259.681439,1936.312728 1269.824190,1935.973022 1269.937661,1939.083099 1271.021893,1939.070543 1271.146943,1943.180576"/>
    <poly id="1010767410" type="building.yes" color="255,230,230" fill="1" layer="-1.00" shape="1272.269274,1959.835744 1272.001704,1970.173105 1265.182702,1969.918709 1265.279689,1964.917136 1260.707868,1964.747842 1260.539874,1970.305843 1253.954493,1970.159875 1254.216885,1959.378089 1272.269274,1959.835744"/>
    <poly id="1010767411" type="building.yes" color="255,230,230" fill="1" layer="-1.00" shape="1244.080172,1973.607890 1235.951048,1973.924309 1235.708625,1966.370882 1241.670591,1966.190689 1241.559680,1963.302825 1243.726849,1963.166598 1244.080172,1973.607890"/>
    <poly id="1010767412" type="building.yes" color="255,230,230" fill="1" layer="-1.00" shape="1233.354384,1963.731251 1232.986263,1972.069600 1220.509929,1971.547441 1220.800588,1963.209988 1233.354384,1963.731251"/>
    <poly id="1010767413" type="building.yes" color="255,230,230" fill="1" layer="-1.00" shape="1215.208731,1975.275872 1228.531800,1975.343725 1228.544674,1976.454787 1244.500861,1976.492165 1244.492920,1982.492797 1215.214982,1982.498673 1215.208731,1975.275872"/>
    <poly id="1010767414" type="building.yes" color="255,230,230" fill="1" layer="-1.00" shape="1229.584322,1999.333692 1217.042186,1999.812393 1216.798452,1992.147860 1229.341891,1991.780265 1229.584322,1999.333692"/>
    <poly id="1010767415" type="building.yes" color="255,230,230" fill="1" layer="-1.00" shape="1216.980193,2001.146565 1230.449084,2000.434883 1230.948307,2010.096637 1217.479437,2010.808318 1216.980193,2001.146565"/>
    <poly id="1010767416" type="building.yes" color="255,230,230" fill="1" layer="-1.00" shape="1238.488933,2005.786667 1238.341979,1999.787829 1246.007690,1999.587901 1246.232081,2005.585842 1238.488933,2005.786667"/>
    <poly id="1010767417" type="building.yes" color="255,230,230" fill="1" layer="-1.00" shape="1238.177658,2012.346420 1246.386751,2012.251318 1246.670347,2023.360145 1238.385113,2023.567250 1238.177658,2012.346420"/>
    <poly id="1010767418" type="building.yes" color="255,230,230" fill="1" layer="-1.00" shape="1246.920071,2004.800025 1251.488001,2004.635990 1251.720109,2011.300568 1247.152184,2011.464603 1246.920071,2004.800025"/>
    <poly id="1010767419" type="building.yes" color="255,230,230" fill="1" layer="-1.00" shape="1253.997940,2020.719478 1253.696339,2008.055165 1262.059039,2007.847183 1262.360622,2020.511497 1253.997940,2020.719478"/>
    <poly id="1010767420" type="building.yes" color="255,230,230" fill="1" layer="-1.00" shape="1293.264702,2020.487016 1280.257943,2020.970968 1280.056741,2016.972938 1277.655971,2017.000737 1277.418745,2009.891733 1287.483930,2009.552952 1287.596106,2012.551923 1293.015918,2012.378056 1293.264702,2020.487016"/>
    <poly id="1010767421" type="building.yes" color="255,230,230" fill="1" layer="-1.00" shape="1305.863821,2045.010057 1294.869367,2045.359567 1294.737901,2040.694002 1291.641431,2040.840970 1291.424802,2035.509665 1305.594476,2035.123396 1305.863821,2045.010057"/>
    <poly id="1010767422" type="building.yes" color="255,230,230" fill="1" layer="-1.00" shape="1277.152236,2060.454924 1284.661698,2060.145731 1284.895056,2066.921417 1277.463046,2067.229713 1277.152236,2060.454924"/>
    <poly id="1010767423" type="building.yes" color="255,230,230" fill="1" layer="-1.00" shape="1294.112397,2060.258558 1294.033398,2066.815618 1286.752416,2066.788791 1286.830120,2060.120625 1294.112397,2060.258558"/>
    <poly id="1010767424" type="building.yes" color="255,230,230" fill="1" layer="-1.00" shape="1273.621254,2083.275642 1295.305398,2083.024575 1295.392862,2090.579798 1266.274189,2090.916962 1266.106911,2076.473153 1273.541483,2076.387056 1273.621254,2083.275642"/>
    <poly id="1010767425" type="building.yes" color="255,230,230" fill="1" layer="-1.00" shape="1259.653829,2060.990935 1259.568433,2066.992464 1253.292929,2066.842910 1253.455763,2060.840483 1259.653829,2060.990935"/>
    <poly id="1010767426" type="building.yes" color="255,230,230" fill="1" layer="-1.00" shape="1244.213366,2085.394197 1244.244258,2088.060746 1238.201105,2087.908516 1238.370567,2075.794349 1252.083210,2076.079977 1251.960275,2085.526697 1244.213366,2085.394197"/>
    <poly id="1010767427" type="building.yes" color="255,230,230" fill="1" layer="-1.00" shape="1250.955242,2072.314924 1227.878363,2072.693405 1227.508670,2047.473191 1250.585644,2047.094710 1250.955242,2072.314924"/>
    <poly id="1010767428" type="building.yes" color="255,230,230" fill="1" layer="-1.00" shape="1308.054680,2033.539225 1318.121113,2033.311600 1318.725633,2052.084069 1315.938943,2052.227440 1316.061392,2056.115262 1308.782969,2056.310621 1308.054680,2033.539225"/>
    <poly id="1010767429" type="building.yes" color="255,230,230" fill="1" layer="-1.00" shape="1165.709522,2061.635256 1164.894371,2031.419755 1168.920173,2031.261946 1168.797632,2027.374127 1171.816663,2027.227995 1171.707008,2024.451238 1177.514029,2024.272779 1177.376033,2019.051685 1190.848747,2018.673235 1191.100241,2027.004405 1188.079922,2027.039421 1188.207603,2031.371665 1192.388293,2031.212076 1192.407614,2032.878669 1196.046195,2032.725366 1196.912877,2060.717848 1165.709522,2061.635256"/>
    <poly id="1010767430" type="building.yes" color="255,230,230" fill="1" layer="-1.00" shape="1294.630278,1957.798909 1307.946950,1957.311403 1308.287305,1966.641635 1295.048097,1967.128244 1294.630278,1957.798909"/>
    <poly id="1010767431" type="building.yes" color="255,230,230" fill="1" layer="-1.00" shape="1312.146942,1871.810687 1293.865822,1871.688920 1293.915248,1862.576420 1307.007504,1862.758241 1307.028079,1864.535940 1312.218255,1864.586992 1312.146942,1871.810687"/>
    <poly id="1010767432" type="building.yes" color="255,230,230" fill="1" layer="-1.00" shape="1302.342595,1894.703981 1284.921163,1895.239018 1284.667223,1886.685635 1302.009947,1886.040388 1302.342595,1894.703981"/>
    <poly id="1010767433" type="building.yes" color="255,230,230" fill="1" layer="-1.00" shape="1270.801561,1859.843759 1271.247723,1871.617427 1263.505693,1871.929325 1263.059516,1860.155657 1270.801561,1859.843759"/>
    <poly id="1010767434" type="building.yes" color="255,230,230" fill="1" layer="-1.00" shape="1268.406666,1873.761627 1268.332832,1880.763110 1265.622225,1880.794500 1265.582093,1884.017477 1254.814542,1883.919940 1254.883213,1876.474031 1258.601907,1876.542082 1258.645895,1873.652424 1268.406666,1873.761627"/>
    <poly id="1010767435" type="building.yes" color="255,230,230" fill="1" layer="-1.00" shape="1245.286125,1883.808067 1254.034936,1883.484485 1254.241303,1887.926938 1245.492499,1888.250520 1245.286125,1883.808067"/>
    <poly id="1010767436" type="building.yes" color="255,230,230" fill="1" layer="-1.00" shape="1270.516007,1902.073078 1263.156097,1901.936067 1263.394065,1889.043265 1270.752704,1889.069169 1270.516007,1902.073078"/>
    <poly id="1010767437" type="building.yes" color="255,230,230" fill="1" layer="-1.00" shape="1223.388451,1879.061318 1228.656063,1879.111403 1228.718266,1871.109963 1240.724977,1871.193100 1240.608263,1887.862617 1223.333981,1887.729396 1223.388451,1879.061318"/>
    <poly id="1010767438" type="building.yes" color="255,230,230" fill="1" layer="-1.00" shape="1238.849747,1903.217701 1206.477471,1903.592822 1206.306199,1888.815699 1213.198877,1888.735814 1213.222055,1890.735726 1238.701722,1890.440489 1238.849747,1903.217701"/>
    <poly id="1010767439" type="building.yes" color="255,230,230" fill="1" layer="-1.00" shape="1243.626740,1867.603610 1243.770270,1859.934591 1249.271523,1860.093109 1249.171971,1864.872469 1253.820025,1864.929752 1253.676482,1872.598770 1248.949701,1872.431278 1248.973094,1867.763921 1243.626740,1867.603610"/>
    <poly id="1010767440" type="building.yes" color="255,230,230" fill="1" layer="-1.00" shape="1282.346946,1873.600211 1306.359066,1873.655610 1306.291618,1881.212624 1282.279528,1881.157225 1282.346946,1873.600211"/>
    <poly id="1010767441" type="building.yes" color="255,230,230" fill="1" layer="-1.00" shape="1237.964393,1820.109378 1238.566364,1845.326892 1227.339215,1845.679210 1226.735911,1820.350591 1237.964393,1820.109378"/>
    <poly id="1010767442" type="building.yes" color="255,230,230" fill="1" layer="-1.00" shape="1198.538880,1820.121762 1213.101433,1820.175222 1212.932904,1845.735028 1198.447859,1845.680672 1198.538880,1820.121762"/>
    <poly id="1010767443" type="building.yes" color="255,230,230" fill="1" layer="-1.00" shape="1300.965656,2103.627578 1309.559269,2103.305864 1309.904765,2113.080523 1301.309879,2113.291130 1300.965656,2103.627578"/>
    <poly id="1010767444" type="building.yes" color="255,230,230" fill="1" layer="-1.00" shape="1320.456595,2107.957951 1320.697628,2115.400276 1315.045578,2115.576809 1314.804537,2108.134484 1320.456595,2107.957951"/>
    <poly id="1034960255" type="landuse.residential" color="235,235,227" fill="1" layer="-3.00" shape="664.723239,2131.516164 658.914084,2104.314826 730.836547,2089.618372 739.015107,2131.393470 664.723239,2131.516164"/>
    <poly id="1034960256" type="landuse.residential" color="235,235,227" fill="1" layer="-3.00" shape="658.914084,2104.314826 653.293128,2075.988970 724.278384,2059.936601 730.836547,2089.618372 658.914084,2104.314826"/>
    <poly id="1034960761" type="building.house" color="255,230,230" fill="1" layer="-1.00" shape="1745.466511,573.665245 1754.105617,587.222646 1767.903722,578.485512 1759.264636,564.928092 1745.466511,573.665245"/>
    <poly id="1034960762" type="building.yes" color="255,230,230" fill="1" layer="-1.00" shape="1775.964359,550.479358 1779.962833,556.622824 1770.534640,562.709475 1766.543907,556.565926 1775.964359,550.479358"/>
    <poly id="1034960763" type="building.yes" color="255,230,230" fill="1" layer="-1.00" shape="1756.541887,557.214284 1760.366811,563.759767 1766.939187,559.950563 1763.114140,553.393965 1756.541887,557.214284"/>
    <poly id="1038041910" type="landuse.forest" color="140,196,107" fill="1" layer="-3.00" shape="5484.549359,-8032.569758 5491.681083,-7989.511350 5446.917347,-7666.305798 4930.035561,-7342.301448 4227.454673,-6455.318685 3893.369936,-6267.476228 3724.064212,-6078.155202 3683.468443,-5988.129462 3520.345524,-5248.221958 2285.056668,-4136.425941 2017.595056,-3957.603550 1958.284643,-3761.254070 1947.249103,-3708.068019 1891.024091,-3679.243992 1869.245300,-3692.250981 1868.447028,-3761.891743 1867.914936,-3808.311507 1827.822430,-3822.775207 1811.605634,-3786.108551 1790.899416,-3706.275822 1804.817595,-3653.375785 1780.588463,-3590.092772 1730.901788,-3571.287515 1660.351474,-3485.914516 1609.953241,-3384.193450 1559.995773,-3244.340596 1482.801377,-3158.888881 1554.067429,-3051.645700 1585.648463,-2980.247964 1611.285288,-2922.149421 1622.042656,-2782.184101 1515.381714,-2655.790187 1415.004088,-2440.026145 1343.734104,-2418.479288 1261.466904,-2463.865525 1194.343692,-2508.625952 1178.525890,-2489.685709 1149.425806,-2471.825014 1130.309889,-2444.545745 1106.888089,-2416.294205 1056.115391,-2378.502392 1073.546964,-2303.676062 1029.452205,-2233.536493 945.009078,-2222.032932 936.906605,-2224.283436 927.893938,-2230.823717 915.460089,-2226.956681 892.082840,-2221.028903 866.127223,-2228.872216 839.093822,-2221.423809 827.306362,-2207.307691 820.726208,-2185.973758 826.615280,-2147.472354 850.206644,-2086.330526 870.813580,-2055.178672 892.582724,-2030.040774 903.513289,-1983.841703 916.600209,-1923.477584 917.431802,-1889.939957 912.008426,-1861.107806 897.890703,-1830.152173 882.445657,-1804.714871 866.496522,-1779.982836 853.694271,-1760.565596 841.674243,-1752.525066 829.403078,-1751.415516 814.481729,-1732.962501 812.041441,-1714.899217 808.704076,-1704.659493 810.535705,-1697.113501 813.045621,-1667.251271 811.665137,-1636.710362 795.006923,-1612.369899 791.990136,-1592.577518 794.129421,-1564.600025 794.377186,-1536.667176 796.123669,-1504.484745 804.286152,-1485.689274 814.215018,-1476.259604 829.466241,-1475.637065 843.537856,-1483.145905 856.533759,-1497.853926 868.137605,-1502.322627 871.603362,-1507.518940 872.890769,-1515.434592 881.693213,-1535.549800 896.544770,-1556.646524 904.656446,-1561.530140 915.319086,-1560.309541 935.360862,-1552.275120 954.340037,-1535.638666 967.681089,-1526.003933 981.214272,-1516.504748 994.634368,-1503.392802 1014.267432,-1473.795991 1029.897770,-1449.186425 1031.316655,-1439.113145 1029.069173,-1426.430424 1022.090132,-1409.436861 1017.570722,-1394.194212 1017.956742,-1376.963888 1024.256451,-1362.346875 1025.767188,-1346.363045 1234.011262,-1372.278776 1384.564605,-1294.468304 1382.676127,-1170.136012 1615.465584,-1171.153685 1621.142297,-1111.558495 1467.357661,-1036.857808 1190.863754,-1070.920326 1163.855948,-968.709866 1454.998763,-955.497238 1292.160506,-801.136325 1255.592690,-656.534245 1146.150682,-487.874481 1085.826935,-384.421598 1087.287904,-258.494276 1096.869386,-149.229248 1027.656880,47.113383 947.015128,117.656493 1488.423903,500.797317 1512.463380,710.949340 1672.444012,745.564515 1773.068907,822.280457 1788.273720,843.640892 1993.324427,750.157806 2051.129180,862.171979 2044.524748,1015.382910 2308.822939,1011.728621 2408.490956,1005.547496 2416.369661,1115.744822 2638.257184,1113.321206 2641.368180,1398.876491 2677.581267,1425.467630 2715.531705,1423.603548 2760.925519,1432.611785 2783.034212,1440.239621 2807.138608,1440.788780 2840.268199,1430.479374 2866.270232,1415.272632 3097.214887,1406.451134 3100.586489,1447.827624 3106.081209,1492.702679 3109.720363,1502.184636 3114.559836,1507.519380 3123.736320,1510.727264 3159.527147,1515.913061 3159.324030,1571.419929 3154.922598,1586.381888 3146.724273,1596.408471 3134.328094,1602.348727 2672.621560,1634.085926 2636.739205,1620.825536 2699.251041,2685.650986 2665.908965,3084.397299 2730.970286,3109.272003 2742.006113,3122.292365 2796.572933,3253.662687 2833.300191,3372.412267 2837.346098,3398.024198 3041.633822,3491.443186 3048.106277,3769.605171 3193.897307,3784.927806 3548.244485,3772.264260 3611.318252,3770.012487 3613.729585,3815.900455 3618.240448,3986.953284 3606.811691,4051.864653 3612.963098,4372.711941 3168.941234,4386.927989 2921.156864,4297.664593 2844.541535,4280.319711 2479.243002,4460.008498 2475.056030,4873.937882 2776.782344,4896.853789 2783.607067,5281.366353 2615.254260,5283.167787 2617.904456,5597.832858 2621.852879,5713.576267 2624.234657,6084.238624 2659.012207,6082.231853 2688.580172,6345.108771 2800.969466,6363.967562 2804.176352,6352.596801 2873.079571,6348.692819 2950.228317,6344.318425 2973.104651,6428.155968 3010.642165,6458.189481 3055.716420,6449.078891 3087.017110,6456.003500 3099.258212,6539.961686 3097.867882,6592.948875 3161.013398,6596.869383 3157.977534,6622.061496 3085.119359,6640.763955 3095.348938,6722.755817 3081.883373,6824.872868 3074.714367,6954.732443 3074.460843,6990.494140 3083.911483,7004.288575 3061.148711,7281.960315 2990.219736,7294.675057 2909.952859,7304.196139 2827.524762,7298.508046 2823.039828,7312.460230 2854.121672,7359.123086 2819.568878,7416.442630 2810.218992,7470.842698 2766.228029,7573.962875 2777.764981,7595.678342 2799.511919,7580.863394 2825.436136,7523.630496 2850.620127,7460.450010 2882.138588,7428.311823 2939.834899,7479.307150 2924.398057,7523.830623 2892.169676,7551.342888 2901.837550,7584.336373 2945.379508,7616.946027 3059.539735,7668.614254 3064.183282,7726.822697 3072.370856,7804.192852 3052.733309,7888.489453 2998.617257,7918.882427 3003.679172,7955.906363 2997.670341,8011.579587 2954.300420,8111.368962 2953.249497,8194.133085 2996.286428,8241.305675 2991.572953,8352.569502 2968.537052,8429.615417 2966.333150,8470.021971 3018.517149,8503.845384 3019.467217,8528.992557 3005.698897,8544.372088 3000.638892,8566.931505 2964.685252,8793.060105 3003.124667,8962.729748 2993.060117,9070.731776 3022.130569,9174.979214 2973.679953,9294.005950 3046.775916,9299.134319 3162.152635,9343.500542 3231.196821,9400.959611 3278.349551,9401.749846 3514.706616,9340.849228 3573.922040,9351.429286 3608.789896,9322.579502 3623.859470,9186.064273 3594.093104,9137.427211 3577.526282,9081.352456 3588.359369,9040.193639 3534.867386,9007.702579 3522.795911,8878.770665 3527.763744,8789.350965 3753.899468,8643.178285 3809.928305,8665.053019 3885.336866,8638.396030 3972.239671,8630.813379 4071.037325,8557.560046 3937.498732,8433.272242 3890.006439,8462.272200 3900.325532,8494.593148 3882.179275,8534.510726 3830.732379,8506.627955 3826.281663,8464.973940 3827.271564,8434.504527 3870.779689,8405.559743 3894.226416,8364.260555 3931.939768,8351.915831 3937.749707,8337.294053 3989.249688,8310.238828 3992.524778,8246.652079 4001.972437,8200.209122 3990.389201,8173.858223 3996.066412,8147.314694 4021.717410,8125.182067 4024.483108,8074.846683 4041.625766,8064.065636 4058.517809,8030.107571 4090.076446,8001.297681 4139.976356,7949.759446 4143.791377,7934.493380 4188.870527,7927.368762 4211.270348,7911.240345 4218.169389,7874.082522 4243.704604,7841.362329 4247.567210,7770.490869 4267.868787,7744.440680 4264.751006,7703.427250 4275.833683,7684.769104 4301.796911,7689.781098 4309.898582,7701.603268 4325.675664,7686.871202 4341.555577,7681.394410 4342.463159,7703.897433 4298.992344,7736.149688 4264.222643,7774.939463 4254.580931,7804.171448 4259.657656,7842.507311 4277.272521,7873.425401 4268.296421,7902.661085 4242.783457,7937.370001 4222.912356,7942.224731 4211.955088,7972.793773 4176.212846,7983.125708 4165.751809,7998.465733 4163.407533,8026.294317 4146.966483,8041.045339 4133.749009,8046.481895 4127.324242,8066.410789 4121.469519,8077.076955 4108.821260,8074.562068 4091.604413,8079.387663 4054.435183,8140.707481 4048.225186,8179.169076 4062.905800,8185.628199 4090.448268,8213.790410 4110.347853,8211.579595 4122.861216,8261.744712 4110.300302,8326.757163 4129.591825,8388.770076 4131.460292,8437.731459 4158.503766,8540.028427 4240.510587,8629.146160 4314.436310,8588.609719 4388.619961,8571.228956 4403.770792,8500.243387 4424.070512,8474.193666 4484.542109,8478.156978 4523.280864,8497.585125 4629.053880,8454.721948 4729.733458,8430.440716 4772.653340,8408.120583 4771.330602,8348.552161 4782.187280,8309.384496 4818.374172,8338.765744 4855.190806,8305.268085 4871.324801,8322.958522 4860.225431,8400.532060 4898.210605,8412.025713 4941.862205,8395.665904 5112.089355,8355.402297 5177.392576,8375.865257 5219.649498,8352.888831 5233.762674,8307.730256 5236.053548,8274.602295 5283.263599,8219.147040 5308.304610,8200.993549 5350.063959,8193.913757 5360.172350,8146.810266 5358.935051,8094.530439 5365.717767,8046.129901 5383.585968,8040.634046 5396.609513,8016.656291 5391.612390,7984.941549 5407.796133,7946.372480 5430.979929,7940.818672 5437.444627,7924.857802 5431.406191,7858.729268 5416.849196,7802.616893 5395.689082,7750.543733 5394.553407,7707.530279 5363.001233,7676.761520 5395.334004,7596.301223 5410.520640,7527.284981 5447.142590,7536.152325 5459.545130,7577.064776 5452.356680,7708.887736 5483.380149,7752.241554 5481.636875,7775.429210 5497.076119,7790.484180 5507.945300,7812.211842 5496.432224,7852.718692 5501.080804,7974.478269 5464.532966,8033.793414 5470.614372,8103.899636 5425.954748,8210.296538 5435.043953,8252.567503 5325.149833,8405.360074 6681.316596,8374.909279 6655.672320,8151.777296 6478.464873,7730.002006 6561.665168,7591.741069 6506.006642,7357.320239 6445.546639,7293.420822 6326.841819,7218.559665 6241.411602,6996.029651 6091.820468,6676.519786 6020.593755,6539.890500 5930.105792,6312.430082 5971.613926,6158.023467 6037.625202,5965.271198 6114.693045,5873.386052 6184.926001,5763.363172 6185.938859,5703.747537 6239.069700,5701.518474 6249.334282,5729.554411 6253.430124,5800.704724 6216.513653,5920.301295 6215.875679,6014.671201 6208.321747,6084.280464 15863.054848,6276.271835 16516.281195,6497.867585 16923.466428,6491.922177 24405.356223,6267.418374 24421.067694,4937.083392 24407.409041,1471.781610 24382.877372,678.281301 24799.128816,666.780127 24743.318690,-925.233462 25585.812796,-941.743101 25591.096085,-1326.743587 26484.943906,-1381.255025 26474.722492,-1762.259789 26312.115431,-8215.644680 17580.514500,-7881.361456 17582.244641,-7802.964041 17596.104162,-7174.517842 17561.733672,-7107.743361 17334.675804,-7420.611476 17253.849323,-7490.044759 17155.260028,-7531.583564 17032.347913,-7546.801378 16906.632971,-7509.767993 16820.322154,-7460.043319 16736.151109,-7354.857605 16692.518794,-7292.461153 16606.449489,-7216.623801 16533.037216,-7189.856974 16443.141641,-7174.350785 16315.169383,-7207.453167 16231.172379,-7263.788463 16138.245352,-7401.632066 16067.366251,-7454.829478 15986.846164,-7488.348303 15903.291579,-7495.748637 15790.549020,-7473.500821 15630.617980,-7419.814921 15550.616020,-7397.864647 15434.504994,-7385.368337 15301.771870,-7400.449773 15109.735280,-7455.777778 14904.549261,-7515.866083 14760.080873,-7560.193886 14571.016138,-7646.534125 14223.828014,-7834.179399 14092.115684,-7912.891227 13944.296545,-7963.702036 13832.839193,-7977.331973 13720.047977,-7959.935068 13596.260388,-7893.484988 13466.116271,-7807.393084 13038.340139,-7689.056531 13117.586332,-7449.956218 13012.029470,-7362.468893 12829.343957,-7633.191172 12212.053508,-7478.703179 11934.144847,-7440.078244 11953.108070,-7342.371769 11955.209254,-7295.068325 11916.342095,-7252.262646 11886.957545,-7243.817961 11854.115281,-7254.917680 11734.579299,-7258.640943 11521.779446,-7258.162325 11439.050209,-7347.091696 11230.322303,-7266.695678 11215.733262,-7087.076538 11004.697027,-7075.185958 10915.074556,-7198.296707 10849.224440,-7235.162464 10814.034194,-7316.391778 10727.078512,-7336.733277 10687.531546,-7199.275489 10434.683389,-7111.898461 10466.398009,-7376.540345 9526.107172,-7120.631252 9364.750538,-7052.089154 9207.787699,-7034.156982 9172.584544,-7115.377255 9089.075534,-7117.785876 9066.811780,-7053.920458 8921.076855,-7058.953173 8601.102499,-7133.960721 8589.258308,-7171.362077 7664.701378,-7452.148316 7472.160478,-7548.026411 7228.224218,-7703.724848 7099.938342,-7759.480148 6728.149240,-7775.105796 6499.119193,-7759.603142 6279.401981,-7791.516878 6095.239951,-7866.241475 5899.370019,-7963.668936 5748.162170,-8017.515618 5644.839069,-8034.342245 5484.549359,-8032.569758"/>
    <poly id="119407750" type="amenity.townhall" color="237,199,199" fill="1" layer="-1.00" shape="1446.180236,2208.635653 1430.773426,2171.632548 1413.344636,2178.834590 1428.751663,2215.848763 1446.180236,2208.635653"/>
    <poly id="119407750#1" type="building.yes" color="255,230,230" fill="1" layer="-1.00" shape="1446.180236,2208.635653 1430.773426,2171.632548 1413.344636,2178.834590 1428.751663,2215.848763 1446.180236,2208.635653"/>
    <poly id="119407751" type="building.yes" color="255,230,230" fill="1" layer="-1.00" shape="727.516257,2308.866225 727.095828,2298.059021 723.773620,2298.097790 723.600652,2283.276217 727.210177,2283.300768 727.266107,2284.111301 735.979896,2284.154080 739.124646,2284.172949 739.197848,2271.859847 735.905954,2271.842695 727.339285,2271.798198 727.389580,2273.453320 724.080642,2273.303028 724.035731,2258.835549 727.735478,2258.625692 727.762818,2248.357759 691.273960,2248.250280 700.357101,2291.870505 700.359649,2309.338758 727.516257,2308.866225"/>
    <poly id="119407751#1" type="tourism.hotel" color="207,245,201" fill="1" layer="-2.00" shape="727.516257,2308.866225 727.095828,2298.059021 723.773620,2298.097790 723.600652,2283.276217 727.210177,2283.300768 727.266107,2284.111301 735.979896,2284.154080 739.124646,2284.172949 739.197848,2271.859847 735.905954,2271.842695 727.339285,2271.798198 727.389580,2273.453320 724.080642,2273.303028 724.035731,2258.835549 727.735478,2258.625692 727.762818,2248.357759 691.273960,2248.250280 700.357101,2291.870505 700.359649,2309.338758 727.516257,2308.866225"/>
    <poly id="119407752" type="amenity.fast_food" color="237,199,199" fill="1" layer="-1.00" shape="1405.050132,2135.337662 1404.840473,2120.549870 1432.742247,2120.149632 1432.808445,2124.538149 1439.398701,2124.450894 1439.492920,2130.594800 1432.182453,2130.690377 1432.239366,2134.945656 1405.050132,2135.337662"/>
    <poly id="119407752#1" type="building.yes" color="255,230,230" fill="1" layer="-1.00" shape="1405.050132,2135.337662 1404.840473,2120.549870 1432.742247,2120.149632 1432.808445,2124.538149 1439.398701,2124.450894 1439.492920,2130.594800 1432.182453,2130.690377 1432.239366,2134.945656 1405.050132,2135.337662"/>
    <poly id="119407754" type="building.yes" color="255,230,230" fill="1" layer="-1.00" shape="1476.877781,2026.475950 1420.713337,2026.280214 1417.777693,2026.269691 1418.072395,1945.203483 1469.845672,1945.383245 1469.856425,1942.960683 1472.691429,1942.972394 1472.637604,1957.763222 1482.095168,1957.787365 1481.842844,2026.496405 1476.877781,2026.475950"/>
    <poly id="119407754#1" type="shop.supermarket" color="237,199,255" fill="1" layer="-1.00" shape="1476.877781,2026.475950 1420.713337,2026.280214 1417.777693,2026.269691 1418.072395,1945.203483 1469.845672,1945.383245 1469.856425,1942.960683 1472.691429,1942.972394 1472.637604,1957.763222 1482.095168,1957.787365 1481.842844,2026.496405 1476.877781,2026.475950"/>
    <poly id="119408019" type="building.yes" color="255,230,230" fill="1" layer="-1.00" shape="893.232961,478.858370 911.033960,468.650377 895.987399,442.589769 894.409729,443.497094 885.712202,428.430287 871.736132,436.449195 884.046966,457.763380 875.681347,462.561157 877.879322,466.358138 883.989988,462.853384 893.232961,478.858370"/>
    <poly id="119408019#1" type="tourism.hotel" color="207,245,201" fill="1" layer="-2.00" shape="893.232961,478.858370 911.033960,468.650377 895.987399,442.589769 894.409729,443.497094 885.712202,428.430287 871.736132,436.449195 884.046966,457.763380 875.681347,462.561157 877.879322,466.358138 883.989988,462.853384 893.232961,478.858370"/>
    <poly id="119408159" type="building.yes" color="255,230,230" fill="1" layer="-1.00" shape="902.979190,542.783996 908.328643,561.756786 966.344906,545.480727 960.995749,526.519000 918.145445,538.529422 902.979190,542.783996"/>
    <poly id="119408159#1" type="tourism.motel" color="207,245,201" fill="1" layer="-2.00" shape="902.979190,542.783996 908.328643,561.756786 966.344906,545.480727 960.995749,526.519000 918.145445,538.529422 902.979190,542.783996"/>
    <poly id="119416531" type="building.yes" color="255,230,230" fill="1" layer="-1.00" shape="931.653843,490.312484 939.689377,505.098136 925.746592,512.638718 927.915860,516.636067 916.482770,522.802919 910.711376,512.180217 903.982233,499.812952 915.007125,493.850844 917.295186,498.069050 931.653843,490.312484"/>