<?xml version="1.0" encoding="UTF-8"?>

<!-- generated on 2022-04-13 23:28:51 by Eclipse SUMO duarouter Version 1.11.0
<configuration xmlns:xsi="http://www.w3.org/2001/XMLSchema-instance" xsi:noNamespaceSchemaLocation="http://sumo.dlr.de/xsd/duarouterConfiguration.xsd">

    <input>
        <net-file value="osm.net.xml"/>
        <route-files value="osm.passenger.trips.xml"/>
    </input>

    <output>
        <output-file value="osm.passenger.trips.xml.tmp"/>
        <write-trips value="true"/>
    </output>

    <time>
        <begin value="0"/>
        <end value="3600"/>
    </time>

    <report>
        <no-warnings value="true"/>
        <ignore-errors value="true"/>
        <no-step-log value="true"/>
    </report>

</configuration>
-->

<routes xmlns:xsi="http://www.w3.org/2001/XMLSchema-instance" xsi:noNamespaceSchemaLocation="http://sumo.dlr.de/xsd/routes_file.xsd">
    <vType id="veh_passenger" vClass="passenger"/>
    <trip id="veh0" type="veh_passenger" depart="0.00" departLane="best" from="5317612#0" to="-237758605#2"/>
    <trip id="veh1" type="veh_passenger" depart="2.89" departLane="best" departSpeed="max" from="-5319379#2" to="-5319161#0"/>
    <trip id="veh2" type="veh_passenger" depart="5.77" departLane="best" from="5318931#5" to="5318440#2"/>
    <trip id="veh3" type="veh_passenger" depart="8.66" departLane="best" from="551574244#3" to="-5316169#0"/>
    <trip id="veh4" type="veh_passenger" depart="11.55" departLane="best" departSpeed="max" from="-589352201#10" to="-237758610#3"/>
    <trip id="veh5" type="veh_passenger" depart="14.44" departLane="best" from="-237758605#0" to="-5318919#1"/>
    <trip id="veh6" type="veh_passenger" depart="17.32" departLane="best" from="5317787#1" to="369429841#11"/>
    <trip id="veh7" type="veh_passenger" depart="20.21" departLane="best" departSpeed="max" from="-5318556#8" to="5316379#3"/>
    <trip id="veh8" type="veh_passenger" depart="23.10" departLane="best" from="5319951#10" to="-158904846"/>
    <trip id="veh9" type="veh_passenger" depart="25.99" departLane="best" from="5319948#1" to="5318757#4"/>
    <trip id="veh10" type="veh_passenger" depart="28.87" departLane="best" departSpeed="max" from="-5320021#1" to="-5318106#1"/>
    <trip id="veh11" type="veh_passenger" depart="31.76" departLane="best" from="-459066602#3" to="-5316653"/>
    <trip id="veh12" type="veh_passenger" depart="34.65" departLane="best" from="5320104#0" to="5316748#0"/>
    <trip id="veh13" type="veh_passenger" depart="37.54" departLane="best" from="5319948#3" to="5319151#4"/>
    <trip id="veh14" type="veh_passenger" depart="40.42" departLane="best" from="228742250#1" to="832995798#14"/>
    <trip id="veh15" type="veh_passenger" depart="43.31" departLane="best" from="-5320155#4" to="369436865#2"/>
    <trip id="veh16" type="veh_passenger" depart="46.20" departLane="best" from="5320032#0" to="5317522"/>
    <trip id="veh17" type="veh_passenger" depart="49.09" departLane="best" from="5320262#1" to="5316169#0"/>
    <trip id="veh18" type="veh_passenger" depart="51.97" departLane="best" from="5318757#0" to="-246084789"/>
    <trip id="veh19" type="veh_passenger" depart="54.86" departLane="best" from="-5318695#1" to="-5319997#3"/>
    <trip id="veh20" type="veh_passenger" depart="57.75" departLane="best" from="-369429841#10" to="-5319418#0"/>
    <trip id="veh21" type="veh_passenger" depart="60.64" departLane="best" from="-5315914#2" to="-5319946#3"/>
    <trip id="veh22" type="veh_passenger" depart="63.52" departLane="best" from="5317346#2" to="-551574248#0"/>
    <trip id="veh23" type="veh_passenger" depart="66.41" departLane="best" from="-5320104#1" to="-5319048#0"/>
    <trip id="veh24" type="veh_passenger" depart="69.30" departLane="best" departSpeed="max" from="-5319152#3" to="827438338#1"/>
    <trip id="veh25" type="veh_passenger" depart="72.19" departLane="best" from="-5317904#4" to="5319151#3"/>
    <trip id="veh26" type="veh_passenger" depart="75.07" departLane="best" from="-5317825#1" to="-624107801"/>
    <trip id="veh27" type="veh_passenger" depart="77.96" departLane="best" from="883773973#3" to="5317917#0"/>
    <trip id="veh28" type="veh_passenger" depart="80.85" departLane="best" from="246068955#0" to="5318556#1"/>
    <trip id="veh29" type="veh_passenger" depart="83.74" departLane="best" from="-5318757#1" to="-237758610#7"/>
    <trip id="veh30" type="veh_passenger" depart="86.62" departLane="best" from="-5319846#5" to="-5319914#0"/>
    <trip id="veh31" type="veh_passenger" depart="89.51" departLane="best" departSpeed="max" from="-5318440#2" to="827438339#9"/>
    <trip id="veh32" type="veh_passenger" depart="92.40" departLane="best" from="5320463#3" to="-5320063#5"/>
    <trip id="veh33" type="veh_passenger" depart="95.29" departLane="best" from="5317888#1" to="-66648396#2"/>
    <trip id="veh34" type="veh_passenger" depart="98.17" departLane="best" from="66646829#0" to="-964332465#0"/>
    <trip id="veh35" type="veh_passenger" depart="101.06" departLane="best" departSpeed="max" from="-5319151#5" to="-5319480#0"/>
    <trip id="veh36" type="veh_passenger" depart="103.95" departLane="best" from="246068955#4" to="-5319846#3"/>
    <trip id="veh37" type="veh_passenger" depart="106.84" departLane="best" from="369429841#3" to="589352201#8"/>
    <trip id="veh38" type="veh_passenger" depart="109.72" departLane="best" from="-5320463#6" to="-5319151#4"/>
    <trip id="veh39" type="veh_passenger" depart="112.61" departLane="best" from="964332467#2" to="246068964"/>
    <trip id="veh40" type="veh_passenger" depart="115.50" departLane="best" from="-423055513#4" to="-246086290#1"/>
    <trip id="veh41" type="veh_passenger" depart="118.39" departLane="best" departSpeed="max" from="-5316108#2" to="5317787#1"/>
    <trip id="veh42" type="veh_passenger" depart="121.27" departLane="best" from="5319846#6" to="-830855649#6"/>
    <trip id="veh43" type="veh_passenger" depart="124.16" departLane="best" departSpeed="max" from="-246113572" to="-647743345#0"/>
    <trip id="veh44" type="veh_passenger" depart="127.05" departLane="best" from="964332467#0" to="246113572"/>
    <trip id="veh45" type="veh_passenger" depart="129.94" departLane="best" from="832995798#16" to="5320282#5"/>
    <trip id="veh46" type="veh_passenger" depart="132.82" departLane="best" from="-228742247#1" to="5318919#6"/>
    <trip id="veh47" type="veh_passenger" depart="135.71" departLane="best" from="5318059#1" to="246115483#2"/>
    <trip id="veh48" type="veh_passenger" depart="138.60" departLane="best" departSpeed="max" from="-5319152#3" to="5317917#2"/>
    <trip id="veh49" type="veh_passenger" depart="141.49" departLane="best" from="-5316137" to="-832995798#10"/>
    <trip id="veh50" type="veh_passenger" depart="144.37" departLane="best" from="-827438328#0" to="830855649#7"/>
    <trip id="veh51" type="veh_passenger" depart="147.26" departLane="best" from="5320463#2" to="-5319846#4"/>
    <trip id="veh52" type="veh_passenger" depart="150.15" departLane="best" from="-832995798#16" to="-5318757#3"/>
    <trip id="veh53" type="veh_passenger" depart="153.04" departLane="best" from="647743345#1" to="5320561#0"/>
    <trip id="veh54" type="veh_passenger" depart="155.92" departLane="best" departSpeed="max" from="-5319482#12" to="5317904#3"/>
    <trip id="veh55" type="veh_passenger" depart="158.81" departLane="best" from="5316108#1" to="-5318041#1"/>
    <trip id="veh56" type="veh_passenger" depart="161.70" departLane="best" from="5319418#2" to="246264129#1"/>
    <trip id="veh57" type="veh_passenger" depart="164.59" departLane="best" from="5319482#3" to="246113580"/>
    <trip id="veh58" type="veh_passenger" depart="167.47" departLane="best" from="-158904780#0" to="-5320155#4"/>
    <trip id="veh59" type="veh_passenger" depart="170.36" departLane="best" from="-228742250#8" to="827438329"/>
    <trip id="veh60" type="veh_passenger" depart="173.25" departLane="best" from="5320519" to="5320062#7"/>
    <trip id="veh61" type="veh_passenger" depart="176.14" departLane="best" departSpeed="max" from="-5319595#5" to="-285377638#2"/>
    <trip id="veh62" type="veh_passenger" depart="179.02" departLane="best" from="5320463#6" to="827438340#3"/>
    <trip id="veh63" type="veh_passenger" depart="181.91" departLane="best" from="-369429841#6" to="234760868#1"/>
    <trip id="veh64" type="veh_passenger" depart="184.80" departLane="best" departSpeed="max" from="-246113589" to="5319480#1"/>
    <trip id="veh65" type="veh_passenger" depart="187.69" departLane="best" departSpeed="max" from="5319419" to="-5317888#0"/>
    <trip id="veh66" type="veh_passenger" depart="190.57" departLane="best" from="-830855649#0" to="369429841#8"/>
    <trip id="veh67" type="veh_passenger" depart="193.46" departLane="best" from="-5319152#2" to="5320561#3"/>
    <trip id="veh68" type="veh_passenger" depart="196.35" departLane="best" departSpeed="max" from="-589352201#10" to="-5319048#0"/>
    <trip id="veh69" type="veh_passenger" depart="199.24" departLane="best" from="228742250#6" to="5319151#4"/>
    <trip id="veh70" type="veh_passenger" depart="202.12" departLane="best" departSpeed="max" from="-5318117#4" to="-5320062#8"/>
    <trip id="veh71" type="veh_passenger" depart="205.01" departLane="best" from="964332465#0" to="5317944#5"/>
    <trip id="veh72" type="veh_passenger" depart="207.90" departLane="best" from="-66646829#1" to="246084782"/>
    <trip id="veh73" type="veh_passenger" depart="210.79" departLane="best" departSpeed="max" from="-5316379#3" to="-5319161#5"/>
    <trip id="veh74" type="veh_passenger" depart="213.67" departLane="best" from="-5320021#0" to="5316379#3"/>
    <trip id="veh75" type="veh_passenger" depart="216.56" departLane="best" from="-5318757#3" to="-5319152#0"/>
    <trip id="veh76" type="veh_passenger" depart="219.45" departLane="best" from="-5318757#1" to="626798594#1"/>
    <trip id="veh77" type="veh_passenger" depart="222.33" departLane="best" from="5320183" to="-50533514"/>
    <trip id="veh78" type="veh_passenger" depart="225.22" departLane="best" from="-5318889#0" to="5318117#4"/>
    <trip id="veh79" type="veh_passenger" depart="228.11" departLane="best" departSpeed="max" from="-5318481" to="-5317917#0"/>
    <trip id="veh80" type="veh_passenger" depart="231.00" departLane="best" from="827438331" to="5316063#1"/>
    <trip id="veh81" type="veh_passenger" depart="233.88" departLane="best" departSpeed="max" from="-827438340#3" to="5319846#8"/>
    <trip id="veh82" type="veh_passenger" depart="236.77" departLane="best" from="5319948#4" to="-5318889#14"/>
    <trip id="veh83" type="veh_passenger" depart="239.66" departLane="best" departSpeed="max" from="-5310497" to="-832995794#9"/>
    <trip id="veh84" type="veh_passenger" depart="242.55" departLane="best" from="-589352201#2" to="158904780#4"/>
    <trip id="veh85" type="veh_passenger" depart="245.43" departLane="best" from="5318919#6" to="5318297"/>
    <trip id="veh86" type="veh_passenger" depart="248.32" departLane="best" from="832995810#2" to="-5316655#0"/>
    <trip id="veh87" type="veh_passenger" depart="251.21" departLane="best" from="-5320561#4" to="-5320282#3"/>
    <trip id="veh88" type="veh_passenger" depart="254.10" departLane="best" from="5320262#1" to="-5319482#1"/>
    <trip id="veh89" type="veh_passenger" depart="256.98" departLane="best" from="-5318006#0" to="-832995803#1"/>
    <trip id="veh90" type="veh_passenger" depart="259.87" departLane="best" departSpeed="max" from="-589352201#10" to="-5319948#1"/>
    <trip id="veh91" type="veh_passenger" depart="262.76" departLane="best" from="-5318919#1" to="66648398#1"/>
    <trip id="veh92" type="veh_passenger" depart="265.65" departLane="best" from="-66647659#11" to="5320282#6"/>
    <trip id="veh94" type="veh_passenger" depart="271.42" departLane="best" from="964332470#1" to="5320091#1"/>
    <trip id="veh95" type="veh_passenger" depart="274.31" departLane="best" from="832995798#12" to="66648399#1"/>
    <trip id="veh96" type="veh_passenger" depart="277.20" departLane="best" from="5320104#4" to="-5318548"/>
    <trip id="veh97" type="veh_passenger" depart="280.08" departLane="best" from="-832995794#0" to="-5319048#3"/>
    <trip id="veh98" type="veh_passenger" depart="282.97" departLane="best" from="-5320561#1" to="-369429841#0"/>
    <trip id="veh99" type="veh_passenger" depart="285.86" departLane="best" from="-5320168" to="832995809"/>
    <trip id="veh100" type="veh_passenger" depart="288.75" departLane="best" from="-5319152#2" to="5319846#7"/>
    <trip id="veh101" type="veh_passenger" depart="291.63" departLane="best" from="-827438328#2" to="-830855650#1"/>
    <trip id="veh102" type="veh_passenger" depart="294.52" departLane="best" from="830855650#2" to="964332465#0"/>
    <trip id="veh103" type="veh_passenger" depart="297.41" departLane="best" from="237758610#7" to="5318919#2"/>
    <trip id="veh104" type="veh_passenger" depart="300.30" departLane="best" from="-5317702" to="-5320025#2"/>
    <trip id="veh105" type="veh_passenger" depart="303.18" departLane="best" from="234760868#0" to="5319418#1"/>
    <trip id="veh106" type="veh_passenger" depart="306.07" departLane="best" from="-246086290#4" to="5316210#1"/>
    <trip id="veh107" type="veh_passenger" depart="308.96" departLane="best" from="-832995798#6" to="5320262#0"/>
    <trip id="veh108" type="veh_passenger" depart="311.85" departLane="best" from="-5317782#0" to="832995794#3"/>
    <trip id="veh109" type="veh_passenger" depart="314.73" departLane="best" from="-369429841#10" to="-5318857#3"/>
    <trip id="veh110" type="veh_passenger" depart="317.62" departLane="best" from="5313459#0" to="5318297"/>
    <trip id="veh111" type="veh_passenger" depart="320.51" departLane="best" departSpeed="max" from="-5318857#5" to="-5317725#1"/>
    <trip id="veh112" type="veh_passenger" depart="323.40" departLane="best" from="50533514" to="5317612#0"/>
    <trip id="veh113" type="veh_passenger" depart="326.28" departLane="best" from="-551574251#1" to="5316210#1"/>
    <trip id="veh114" type="veh_passenger" depart="329.17" departLane="best" from="-964332470#1" to="827438337#3"/>
    <trip id="veh115" type="veh_passenger" depart="332.06" departLane="best" from="-5318289#1" to="5318889#8"/>
    <trip id="veh116" type="veh_passenger" depart="334.95" departLane="best" from="-5318889#1" to="-66648396#3"/>
    <trip id="veh117" type="veh_passenger" depart="337.83" departLane="best" from="5317944#8" to="-5320027#5"/>
    <trip id="veh118" type="veh_passenger" depart="340.72" departLane="best" from="-5319846#7" to="5319473"/>
    <trip id="veh119" type="veh_passenger" depart="343.61" departLane="best" from="-246115483#1" to="-964332464#2"/>
    <trip id="veh120" type="veh_passenger" depart="346.50" departLane="best" from="-246115483#2" to="-5319048#2"/>
    <trip id="veh121" type="veh_passenger" depart="349.38" departLane="best" from="-5319152#2" to="827438337#0"/>
    <trip id="veh122" type="veh_passenger" depart="352.27" departLane="best" from="5320561#3" to="551574245#1"/>
    <trip id="veh123" type="veh_passenger" depart="355.16" departLane="best" from="-5320103#4" to="-5318120"/>
    <trip id="veh124" type="veh_passenger" depart="358.05" departLane="best" from="5320037#3" to="5318857#5"/>
    <trip id="veh125" type="veh_passenger" depart="360.93" departLane="best" from="5316169#0" to="832995810#2"/>
    <trip id="veh126" type="veh_passenger" depart="363.82" departLane="best" from="5317825#3" to="-158904868#0"/>
    <trip id="veh127" type="veh_passenger" depart="366.71" departLane="best" from="5317944#1" to="827438339#10"/>
    <trip id="veh128" type="veh_passenger" depart="369.60" departLane="best" from="-5316707#0" to="-5317701#0"/>
    <trip id="veh129" type="veh_passenger" depart="372.48" departLane="best" from="-5316108#1" to="423055513#2"/>
    <trip id="veh130" type="veh_passenger" depart="375.37" departLane="best" from="-5319379#1" to="5316838#0"/>
    <trip id="veh131" type="veh_passenger" depart="378.26" departLane="best" from="5318889#14" to="-5318928#0"/>
    <trip id="veh132" type="veh_passenger" depart="381.15" departLane="best" from="5317026#1" to="-5319846#5"/>
    <trip id="veh133" type="veh_passenger" depart="384.03" departLane="best" from="-832995794#5" to="626798594#1"/>
    <trip id="veh134" type="veh_passenger" depart="386.92" departLane="best" from="5320103#3" to="-5316381"/>
    <trip id="veh135" type="veh_passenger" depart="389.81" departLane="best" from="-589352201#2" to="-5319946#1"/>
    <trip id="veh136" type="veh_passenger" depart="392.70" departLane="best" from="-158904780#5" to="5319595#1"/>
    <trip id="veh137" type="veh_passenger" depart="395.58" departLane="best" from="5317509#2" to="-5319846#12"/>
    <trip id="veh138" type="veh_passenger" depart="398.47" departLane="best" from="5319048#3" to="369436865#1"/>
    <trip id="veh139" type="veh_passenger" depart="401.36" departLane="best" from="-589352201#9" to="-228742247#3"/>
    <trip id="veh140" type="veh_passenger" depart="404.25" departLane="best" from="-246264129#1" to="551574248#0"/>
    <trip id="veh141" type="veh_passenger" depart="407.13" departLane="best" from="589352201#9" to="369429841#11"/>
    <trip id="veh142" type="veh_passenger" depart="410.02" departLane="best" from="5320037#5" to="5316210#0"/>
    <trip id="veh143" type="veh_passenger" depart="412.91" departLane="best" from="-5317346#0" to="-5317825#3"/>
    <trip id="veh144" type="veh_passenger" depart="415.80" departLane="best" from="-5319607#0" to="624107797#0"/>
    <trip id="veh145" type="veh_passenger" depart="418.68" departLane="best" departSpeed="max" from="5319914#0" to="5320282#4"/>
    <trip id="veh146" type="veh_passenger" depart="421.57" departLane="best" from="589352201#0" to="-5319048#0"/>
    <trip id="veh147" type="veh_passenger" depart="424.46" departLane="best" from="-5318919#0" to="-5316748#0"/>
    <trip id="veh148" type="veh_passenger" depart="427.35" departLane="best" from="5319482#7" to="551574248#2"/>
    <trip id="veh149" type="veh_passenger" depart="430.23" departLane="best" from="-551574243#2" to="5317612#2"/>
    <trip id="veh150" type="veh_passenger" depart="433.12" departLane="best" from="-5317701#2" to="827438331"/>
    <trip id="veh151" type="veh_passenger" depart="436.01" departLane="best" departSpeed="max" from="5320271" to="832995798#6"/>
    <trip id="veh152" type="veh_passenger" depart="438.89" departLane="best" from="-237758604#1" to="5319161#0"/>
    <trip id="veh153" type="veh_passenger" depart="441.78" departLane="best" from="-5319997#3" to="827438334#1"/>
    <trip id="veh154" type="veh_passenger" depart="444.67" departLane="best" departSpeed="max" from="5319932#0" to="5320282#6"/>
    <trip id="veh155" type="veh_passenger" depart="447.56" departLane="best" from="5319951#5" to="-5319914#0"/>
    <trip id="veh156" type="veh_passenger" depart="450.44" departLane="best" from="5319609#3" to="-5317346#0"/>
    <trip id="veh157" type="veh_passenger" depart="453.33" departLane="best" departSpeed="max" from="5320463#0" to="5320282#1"/>
    <trip id="veh158" type="veh_passenger" depart="456.22" departLane="best" departSpeed="max" from="-5318556#8" to="5320027#5"/>
    <trip id="veh159" type="veh_passenger" depart="459.11" departLane="best" from="-827438337#1" to="-5320037#2"/>
    <trip id="veh160" type="veh_passenger" depart="461.99" departLane="best" departSpeed="max" from="5319914#0" to="-5319417#0"/>
    <trip id="veh161" type="veh_passenger" depart="464.88" departLane="best" from="-234764308#2" to="-5318889#19"/>
    <trip id="veh162" type="veh_passenger" depart="467.77" departLane="best" from="-5319951#2" to="5320292"/>
    <trip id="veh163" type="veh_passenger" depart="470.66" departLane="best" from="832995798#0" to="-5319948#2"/>
    <trip id="veh164" type="veh_passenger" depart="473.54" departLane="best" departSpeed="max" from="5317701#0" to="-827438328#0"/>
    <trip id="veh165" type="veh_passenger" depart="476.43" departLane="best" from="832995802" to="246115483#1"/>
    <trip id="veh166" type="veh_passenger" depart="479.32" departLane="best" from="827438337#1" to="-5317701#0"/>
    <trip id="veh167" type="veh_passenger" depart="482.21" departLane="best" from="832995798#14" to="-5318757#3"/>
    <trip id="veh168" type="veh_passenger" depart="485.09" departLane="best" from="832995794#6" to="-5319846#7"/>
    <trip id="veh169" type="veh_passenger" depart="487.98" departLane="best" departSpeed="max" from="-5316108#2" to="-832995798#10"/>
    <trip id="veh170" type="veh_passenger" depart="490.87" departLane="best" departSpeed="max" from="5316108#0" to="246068964"/>
    <trip id="veh171" type="veh_passenger" depart="493.76" departLane="best" from="-5320270" to="5316136#2"/>
    <trip id="veh172" type="veh_passenger" depart="496.64" departLane="best" from="-5318931#0" to="5318889#13"/>
    <trip id="veh173" type="veh_passenger" depart="499.53" departLane="best" from="-158904780#1" to="66648399#0"/>
    <trip id="veh174" type="veh_passenger" depart="502.42" departLane="best" departSpeed="max" from="5319151#0" to="5318117#4"/>
    <trip id="veh175" type="veh_passenger" depart="505.31" departLane="best" from="-5320063#1" to="-459066602#3"/>
    <trip id="veh176" type="veh_passenger" depart="508.19" departLane="best" from="-5319846#3" to="5320168"/>
    <trip id="veh177" type="veh_passenger" depart="511.08" departLane="best" from="5318889#18" to="-5320031"/>
    <trip id="veh178" type="veh_passenger" depart="513.97" departLane="best" from="-5319609#0" to="-827438338#0"/>
    <trip id="veh179" type="veh_passenger" depart="516.86" departLane="best" from="-5320561#3" to="-5320025#1"/>
    <trip id="veh180" type="veh_passenger" depart="519.74" departLane="best" departSpeed="max" from="-5316490" to="-830855649#3"/>
    <trip id="veh181" type="veh_passenger" depart="522.63" departLane="best" from="827438337#3" to="5318440#2"/>
    <trip id="veh182" type="veh_passenger" depart="525.52" departLane="best" from="589352201#7" to="5317346#1"/>
    <trip id="veh183" type="veh_passenger" depart="528.41" departLane="best" from="-5319482#7" to="369429841#3"/>
    <trip id="veh184" type="veh_passenger" depart="531.29" departLane="best" from="-158904778" to="-5319997#0"/>
    <trip id="veh185" type="veh_passenger" depart="534.18" departLane="best" from="-624107797#3" to="5316208#3"/>
    <trip id="veh186" type="veh_passenger" depart="537.07" departLane="best" from="5317888#0" to="158904780#0"/>
    <trip id="veh187" type="veh_passenger" depart="539.96" departLane="best" from="-66647659#0" to="-5319048#3"/>
    <trip id="veh188" type="veh_passenger" depart="542.84" departLane="best" departSpeed="max" from="-827438340#3" to="624107797#4"/>
    <trip id="veh189" type="veh_passenger" depart="545.73" departLane="best" departSpeed="max" from="5319914#0" to="-5318556#3"/>
    <trip id="veh190" type="veh_passenger" depart="548.62" departLane="best" from="-369429841#5" to="246084779"/>
    <trip id="veh191" type="veh_passenger" depart="551.51" departLane="best" from="5316846" to="-5320271"/>
    <trip id="veh192" type="veh_passenger" depart="554.39" departLane="best" from="5319997#6" to="5319473"/>
    <trip id="veh193" type="veh_passenger" depart="557.28" departLane="best" from="5318000#0" to="-5319161#5"/>
    <trip id="veh194" type="veh_passenger" depart="560.17" departLane="best" from="-5318117#1" to="-237758605#1"/>
    <trip id="veh195" type="veh_passenger" depart="563.06" departLane="best" from="-5318889#2" to="228742247#0"/>
    <trip id="veh196" type="veh_passenger" depart="565.94" departLane="best" from="5320117#0" to="-5315914#3"/>
    <trip id="veh197" type="veh_passenger" depart="568.83" departLane="best" departSpeed="max" from="-551574249" to="5317825#0"/>
    <trip id="veh198" type="veh_passenger" depart="571.72" departLane="best" from="-5318041#0" to="5318757#0"/>
    <trip id="veh199" type="veh_passenger" depart="574.61" departLane="best" departSpeed="max" from="-832995796#1" to="-5319479#4"/>
    <trip id="veh200" type="veh_passenger" depart="577.49" departLane="best" from="5317891" to="-158904780#8"/>
    <trip id="veh201" type="veh_passenger" depart="580.38" departLane="best" from="5319161#0" to="5319482#9"/>
    <trip id="veh202" type="veh_passenger" depart="583.27" departLane="best" from="-5316106#1" to="-830855650#4"/>
    <trip id="veh203" type="veh_passenger" depart="586.16" departLane="best" from="-5317944#10" to="830855650#4"/>
    <trip id="veh204" type="veh_passenger" depart="589.04" departLane="best" from="-964332464#2" to="-246115483#2"/>
    <trip id="veh205" type="veh_passenger" depart="591.93" departLane="best" from="-5318919#0" to="5320171#1"/>
    <trip id="veh206" type="veh_passenger" depart="594.82" departLane="best" from="-827438331" to="5319997#6"/>
    <trip id="veh207" type="veh_passenger" depart="597.71" departLane="best" from="5317944#17" to="832995810#3"/>
    <trip id="veh208" type="veh_passenger" depart="600.59" departLane="best" from="5313459#1" to="830855649#2"/>
    <trip id="veh209" type="veh_passenger" depart="603.48" departLane="best" from="551574244#2" to="5317026#2"/>
    <trip id="veh210" type="veh_passenger" depart="606.37" departLane="best" from="5318889#17" to="246068955#13"/>
    <trip id="veh211" type="veh_passenger" depart="609.26" departLane="best" from="5320032#2" to="369429841#3"/>
    <trip id="veh212" type="veh_passenger" depart="612.14" departLane="best" from="551574251#0" to="5319417#0"/>
    <trip id="veh213" type="veh_passenger" depart="615.03" departLane="best" from="-827438341#0" to="-5319609#1"/>
    <trip id="veh214" type="veh_passenger" depart="617.92" departLane="best" from="-5318889#6" to="5317904#1"/>
    <trip id="veh215" type="veh_passenger" depart="620.81" departLane="best" departSpeed="max" from="5319419" to="246086290#4"/>
    <trip id="veh216" type="veh_passenger" depart="623.69" departLane="best" from="5316707#0" to="-5319932#0"/>
    <trip id="veh217" type="veh_passenger" depart="626.58" departLane="best" from="-285377638#2" to="-5319997#0"/>
    <trip id="veh218" type="veh_passenger" depart="629.47" departLane="best" from="-5319161#7" to="-5320104#4"/>
    <trip id="veh219" type="veh_passenger" depart="632.36" departLane="best" from="228742250#8" to="-5317944#14"/>
    <trip id="veh220" type="veh_passenger" depart="635.24" departLane="best" from="-5318757#5" to="5318557#5"/>
    <trip id="veh221" type="veh_passenger" depart="638.13" departLane="best" from="5318757#3" to="-369429841#9"/>
    <trip id="veh222" type="veh_passenger" depart="641.02" departLane="best" from="-551574244#2" to="369429841#0"/>
    <trip id="veh223" type="veh_passenger" depart="643.91" departLane="best" departSpeed="max" from="-551574249" to="-5318931#0"/>
    <trip id="veh224" type="veh_passenger" depart="646.79" departLane="best" from="-589352201#1" to="626798594#0"/>
    <trip id="veh225" type="veh_passenger" depart="649.68" departLane="best" from="369429841#2" to="5318695#1"/>
    <trip id="veh226" type="veh_passenger" depart="652.57" departLane="best" departSpeed="max" from="5320171#0" to="5319482#12"/>
    <trip id="veh227" type="veh_passenger" depart="655.46" departLane="best" from="-5320171#3" to="-158904780#9"/>
    <trip id="veh228" type="veh_passenger" depart="658.34" departLane="best" departSpeed="max" from="-5320029" to="5319479#10"/>
    <trip id="veh229" type="veh_passenger" depart="661.23" departLane="best" from="5320168" to="830855649#7"/>
    <trip id="veh230" type="veh_passenger" depart="664.12" departLane="best" from="-551574251#1" to="5319417#6"/>
    <trip id="veh231" type="veh_passenger" depart="667.00" departLane="best" from="237758604#1" to="5316748#0"/>
    <trip id="veh232" type="veh_passenger" depart="669.89" departLane="best" departSpeed="max" from="-5318556#8" to="-5319151#4"/>
    <trip id="veh233" type="veh_passenger" depart="672.78" departLane="best" from="-647743345#0" to="-237758610#2"/>
    <trip id="veh234" type="veh_passenger" depart="675.67" departLane="best" departSpeed="max" from="-5320020" to="5318440#2"/>
    <trip id="veh235" type="veh_passenger" depart="678.55" departLane="best" from="-5320561#7" to="-5318548"/>
    <trip id="veh236" type="veh_passenger" depart="681.44" departLane="best" from="-827438339#4" to="-5317825#3"/>
    <trip id="veh237" type="veh_passenger" depart="684.33" departLane="best" from="5316498#3" to="-237758610#0"/>
    <trip id="veh238" type="veh_passenger" depart="687.22" departLane="best" departSpeed="max" from="-5320282#6" to="5313459#1"/>
    <trip id="veh239" type="veh_passenger" depart="690.10" departLane="best" from="-237758605#1" to="5317944#0"/>
    <trip id="veh240" type="veh_passenger" depart="692.99" departLane="best" from="-5316712#0" to="-964332467#3"/>
    <trip id="veh241" type="veh_passenger" depart="695.88" departLane="best" from="-246078324#0" to="-624107800#3"/>
    <trip id="veh242" type="veh_passenger" depart="698.77" departLane="best" departSpeed="max" from="-5318481" to="-5320171#0"/>
    <trip id="veh243" type="veh_passenger" depart="701.65" departLane="best" departSpeed="max" from="5319418#0" to="-624107800#3"/>
    <trip id="veh244" type="veh_passenger" depart="704.54" departLane="best" from="5319161#3" to="5320062#8"/>
    <trip id="veh245" type="veh_passenger" depart="707.43" departLane="best" from="-5318919#5" to="-5316108#0"/>
    <trip id="veh246" type="veh_passenger" depart="710.32" departLane="best" from="-228742250#8" to="246264129#1"/>
    <trip id="veh247" type="veh_passenger" depart="713.20" departLane="best" from="964332470#2" to="-5320561#1"/>
    <trip id="veh248" type="veh_passenger" depart="716.09" departLane="best" from="5317787#1" to="5319846#2"/>
    <trip id="veh249" type="veh_passenger" depart="718.98" departLane="best" from="5317787#4" to="5319479#13"/>
    <trip id="veh250" type="veh_passenger" depart="721.87" departLane="best" from="827438340#1" to="-5318919#2"/>