<tazs>
    <taz id="0_0" shape="-499.0,-499.0 499.0,-499.0 499.0,499.0 -499.0,499.0 -499.0,-499.0" color="255,41,0" edges="-5316169#0 -5318695#0 -5318695#1 237758604#0 5316169#0 5318523#0 5318695#0 5318695#1"/>
    <taz id="0_1" shape="-499.0,501.0 499.0,501.0 499.0,1499.0 -499.0,1499.0 -499.0,501.0" color="0,42,255" edges="-158904778 -234764308#0 -234764308#1 -234764308#2 -237758604#0 -237758604#1 -237758604#2 -237758604#3 -5316169#1 -5318523#0 -5318523#2 -5318523#3 -5319479#0 -5319479#1 -5320282#6 -5320519 -827438337#2 -827438337#3 -827438337#4 -827438338#2 -832995799#0 -832995799#1 -832995799#2 158904778 234764308#0 234764308#1 234764308#2 237758604#1 237758604#2 237758604#3 5316169#1 5318523#2 5318523#3 5319479#0 5319479#1 5320282#6 5320519 827438337#2 827438337#3 827438337#4 827438338#2 832995799#0 832995799#1 832995799#2"/>
    <taz id="1_0" shape="501.0,-499.0 1499.0,-499.0 1499.0,499.0 501.0,499.0 501.0,-499.0" color="0,255,136" edges="-285377638#0 -285377638#1 285377638#0 285377638#1"/>
    <taz id="1_1" shape="501.0,501.0 1499.0,501.0 1499.0,1499.0 501.0,1499.0 501.0,501.0" color="15,0,255" edges="-228742247#0 -234764307 -237758605#0 -237758605#1 -237758605#2 -237758605#3 -246068954 -246078316#0 -246078316#1 -246078321 -246078324#0 -246078324#1 -285377638#2 -285377638#3 -423055513#0 -423055513#2 -423055513#3 -423055513#4 -423055513#5 -5315922#0 -5315922#1 -5315922#2 -5315922#3 -5315924 -5316490 -5317026#0 -5317026#1 -5317026#2 -5318106#0 -5318106#1 -5318634 -5318889#16 -5318889#17 -5318889#18 -5318889#19 -5319379#0 -5319479#2 -5319479#3 -5319479#4 -5319479#5 -5319479#6 -5319946#0 -5319946#1 -5319946#2 -5319946#3 -5320141#0 -5320141#2 -5320141#5 -5320141#6 -5320155#0 -5320155#3 -5320155#4 -5320183 -5320184 -5320262#0 -5320262#1 -5320271 -5320281 -5320282#0 -5320282#1 -5320282#2 -5320282#3 -5320282#4 -5320282#5 -66647663#0 -66647663#1 -827438335 -827438336#0 -827438336#1 -827438337#0 -827438337#1 -827438338#0 -827438338#1 -827438339#0 -827438339#1 -827438339#2 -827438340#0 -827438340#1 -827438340#2 -827438340#3 -827438341#0 -827438341#1 -830855650#0 -830855650#1 -830855650#2 -830855650#3 -830855650#4 -830855650#5 -832995799#3 -832995799#4 -832995799#5 -832995801#0 -832995801#1 -832995801#2 -832995802 -832995803#0 -832995803#1 228742247#0 234764307 237758605#1 237758605#2 237758605#3 246068954 246078316#0 246078316#1 246078321 246078324#0 246078324#1 285377638#2 285377638#3 423055513#0 423055513#2 423055513#3 423055513#4 423055513#5 5315922#0 5315922#1 5315922#2 5315922#3 5315924 5316490 5317026#0 5317026#1 5317026#2 5317346#0 5318106#0 5318106#1 5318634 5318889#16 5318889#17 5318889#18 5318889#19 5319379#0 5319379#1 5319479#2 5319479#3 5319479#4 5319479#5 5319479#6 5319946#0 5319946#1 5319946#2 5319946#3 5320141#0 5320141#2 5320141#5 5320141#6 5320155#0 5320155#3 5320155#4 5320183 5320184 5320262#0 5320262#1 5320267#1 5320271 5320281 5320282#0 5320282#1 5320282#2 5320282#3 5320282#4 5320282#5 5320292 66647663#1 827438335 827438336#0 827438336#1 827438337#0 827438337#1 827438338#0 827438338#1 827438339#0 827438339#1 827438339#2 827438340#0 827438340#1 827438340#2 827438340#3 827438341#0 827438341#1 830855650#0 830855650#1 830855650#2 830855650#3 830855650#4 830855650#5 832995799#3 832995799#4 832995799#5 832995801#0 832995801#1 832995801#2 832995802 832995803#0 832995803#1"/>
    <taz id="1_2" shape="501.0,1501.0 1499.0,1501.0 1499.0,2499.0 501.0,2499.0 501.0,1501.0" color="255,0,165" edges="-228742247#1 -228742247#2 -228742247#3 -228742247#5 -228742247#8 -228742247#9 -228742250#0 -228742250#1 -228742250#2 -228742250#3 -228742250#4 -228742250#5 -228742250#6 -228742250#7 -228742250#8 -228742250#9 -237758610#11 -237758610#12 -237758610#8 -246068955#0 -246068955#1 -246068955#10 -246068955#13 -246068955#14 -246068955#15 -246068955#16 -246068955#2 -246068955#4 -246068955#7 -246068955#8 -246068955#9 -246084779 -246084782 -246084789 -246086290#1 -246086290#2 -246086290#3 -246086290#4 -246086290#5 -369429841#0 -369429841#1 -369429841#2 -369429841#3 -369429841#4 -369429841#5 -369429841#6 -369429841#8 -369436865#0 -369436865#1 -369436865#2 -50533514 -5315916#0 -5317346#0 -5317346#1 -5317346#2 -5317509#0 -5317509#2 -5317509#4 -5317725#0 -5317725#1 -5317904#0 -5317904#1 -5317904#2 -5317904#3 -5317904#4 -5317944#0 -5317944#1 -5317944#3 -5317944#4 -5317944#5 -5318556#0 -5318556#1 -5318556#2 -5318556#3 -5318556#4 -5318556#5 -5318556#6 -5318556#8 -5318557#0 -5318557#1 -5318557#2 -5318557#3 -5318557#4 -5318557#5 -5318889#0 -5318889#1 -5318889#10 -5318889#11 -5318889#12 -5318889#13 -5318889#14 -5318889#15 -5318889#2 -5318889#3 -5318889#4 -5318889#5 -5318889#6 -5318889#7 -5318889#8 -5318889#9 -5318919#0 -5318919#1 -5318919#2 -5318919#3 -5318919#4 -5318919#5 -5318919#6 -5319379#1 -5319379#2 -5319479#10 -5319479#13 -5319479#14 -5319479#15 -5319479#16 -5319479#7 -5319480#0 -5319480#1 -5319480#2 -5319595#0 -5319595#1 -5319595#2 -5319595#3 -5319595#4 -5319595#5 -5319846#0 -5319846#1 -5319846#12 -5319846#2 -5319846#3 -5319846#4 -5319846#5 -5319846#6 -5319846#7 -5319846#8 -5319846#9 -5319927#0 -5319927#1 -5319928#1 -5319928#2 -5319948#1 -5319948#2 -5319948#3 -5319948#4 -5319948#5 -5319951#1 -5319951#10 -5319951#11 -5319951#2 -5319951#5 -5319951#7 -5319953#0 -5319953#1 -5319997#2 -5319997#3 -5319997#5 -5319997#6 -5319997#8 -5319997#9 -5320020 -5320021#0 -5320022#0 -5320022#1 -5320022#2 -5320022#3 -5320027#0 -5320027#1 -5320027#2 -5320027#3 -5320027#4 -5320027#5 -5320028 -5320037#0 -5320037#1 -5320037#2 -5320037#3 -5320037#4 -5320037#5 -5320062#0 -5320062#2 -5320062#4 -5320062#7 -5320062#8 -5320063#0 -5320063#1 -5320063#3 -5320063#4 -5320063#5 -5320091#0 -5320091#1 -5320103#0 -5320103#1 -5320103#3 -5320103#4 -5320104#0 -5320104#1 -5320104#4 -5320104#5 -5320117#0 -5320561#0 -5320561#1 -5320561#2 -5320561#3 -5320561#4 -5320561#5 -5320561#6 -5320561#7 -5320561#8 -551574243#1 -551574243#2 -551574244#0 -551574244#1 -551574244#2 -551574244#3 -551574245#0 -551574245#1 -551574247#0 -551574247#1 -551574248#0 -551574248#1 -551574248#2 -551574249 -551574250#0 -551574250#1 -551574251#0 -551574251#1 -624107797#0 -626798594#0 -626798594#1 -626798594#2 -66646826 -66646829#0 -66646829#1 -66646830#0 -66646830#1 -66646830#11 -66646830#4 -66646830#5 -66646830#8 -66647659#0 -66647659#1 -66647659#11 -66647659#12 -66647659#2 -66647659#5 -66647659#7 -66647659#9 -66647900#0 -66648396#0 -66648396#1 -66648396#2 -66648396#3 -66648398#0 -66648398#1 -66648398#2 -827438339#10 -827438339#12 -827438339#3 -827438339#4 -827438339#6 -827438339#7 -827438339#9 -832995794#0 -832995796#0 -832995796#1 -832995797#0 -832995797#1 -832995798#0 -832995798#1 228742247#1 228742247#2 228742247#3 228742247#5 228742247#8 228742247#9 228742250#0 228742250#1 228742250#2 228742250#3 228742250#4 228742250#5 228742250#6 228742250#7 228742250#8 228742250#9 237758610#11 237758610#12 246068955#0 246068955#1 246068955#10 246068955#13 246068955#14 246068955#15 246068955#16 246068955#2 246068955#4 246068955#7 246068955#8 246068955#9 246084779 246084782 246084789 246086290#1 246086290#2 246086290#3 246086290#4 246086290#5 369429841#0 369429841#1 369429841#2 369429841#3 369429841#4 369429841#5 369429841#6 369429841#8 369429841#9 369436865#0 369436865#1 369436865#2 50533514 5313459#0 5313459#1 5315916#0 5317346#1 5317346#2 5317509#0 5317509#2 5317509#4 5317725#0 5317725#1 5317891 5317904#0 5317904#1 5317904#2 5317904#3 5317904#4 5317944#0 5317944#1 5317944#3 5317944#4 5317944#5 5318556#0 5318556#1 5318556#2 5318556#3 5318556#4 5318556#5 5318556#6 5318556#8 5318557#0 5318557#1 5318557#2 5318557#3 5318557#4 5318557#5 5318889#0 5318889#1 5318889#10 5318889#11 5318889#12 5318889#13 5318889#14 5318889#15 5318889#2 5318889#3 5318889#4 5318889#5 5318889#6 5318889#7 5318889#8 5318889#9 5318919#0 5318919#1 5318919#2 5318919#3 5318919#4 5318919#5 5318919#6 5319379#2 5319479#10 5319479#13 5319479#14 5319479#15 5319479#16 5319479#7 5319480#0 5319480#1 5319480#2 5319595#0 5319595#1 5319595#2 5319595#3 5319595#4 5319595#5 5319846#0 5319846#1 5319846#12 5319846#2 5319846#3 5319846#4 5319846#5 5319846#6 5319846#7 5319846#8 5319846#9 5319927#0 5319927#1 5319928#1 5319928#2 5319948#1 5319948#2 5319948#3 5319948#4 5319948#5 5319951#1 5319951#10 5319951#11 5319951#2 5319951#5 5319951#7 5319953#0 5319953#1 5319997#2 5319997#3 5319997#5 5319997#6 5319997#8 5319997#9 5320020 5320021#0 5320022#0 5320022#1 5320022#2 5320022#3 5320022#4 5320027#0 5320027#1 5320027#2 5320027#3 5320027#4 5320027#5 5320028 5320037#0 5320037#1 5320037#2 5320037#3 5320037#4 5320037#5 5320037#6 5320062#0 5320062#2 5320062#4 5320062#7 5320062#8 5320063#0 5320063#1 5320063#3 5320063#4 5320063#5 5320091#0 5320091#1 5320103#0 5320103#1 5320103#3 5320103#4 5320104#0 5320104#1 5320104#4 5320104#5 5320117#0 5320561#0 5320561#1 5320561#2 5320561#3 5320561#4 5320561#5 5320561#6 5320561#7 5320561#8 551574243#1 551574243#2 551574244#0 551574244#1 551574244#2 551574244#3 551574245#0 551574245#1 551574247#0 551574247#1 551574248#0 551574248#1 551574248#2 551574249 551574250#0 551574250#1 551574251#0 551574251#1 624107797#0 626798594#0 626798594#1 626798594#2 66646828 66646829#0 66646829#1 66646830#1 66646830#11 66646830#4 66646830#5 66646830#8 66646831#0 66646831#1 66647659#0 66647659#1 66647659#11 66647659#12 66647659#2 66647659#5 66647659#7 66647659#9 66647900#0 66648396#0 66648396#1 66648396#2 66648396#3 66648398#0 66648398#1 66648398#2 66648399#0 66648399#1 66648399#2 827438339#10 827438339#12 827438339#3 827438339#4 827438339#6 827438339#7 827438339#9 832995794#0 832995796#0 832995796#1 832995797#0 832995797#1 832995798#0 832995798#1 883773973#0 883773973#1 883773973#2 883773973#3"/>
    <taz id="1_3" shape="501.0,2501.0 1499.0,2501.0 1499.0,3499.0 501.0,3499.0 501.0,2501.0" color="255,38,0" edges="-158904780#0 -158904780#1 -158904780#2 -158904780#3 -158904780#4 -158904780#5 -158904780#6 -158904780#7 -246068964 -246115495 -5310497 -5315914#0 -5315914#1 -5315914#2 -5316381 -5316396#0 -5316396#1 -5316655#0 -5316655#1 -5316707#0 -5316707#1 -5316838#0 -5316838#1 -5316838#2 -5316838#3 -5316838#4 -5316846 -5317702 -5317703 -5318006#0 -5318006#1 -5318006#2 -5318006#3 -5318120 -5318928#2 -5318928#3 -5318931#0 -5318931#1 -5318931#2 -5318931#3 -5318931#5 -5319048#0 -5319048#1 -5319048#2 -5319048#3 -5319048#4 -5319151#5 -5319152#0 -5319152#2 -5319152#3 -5319417#0 -5319417#1 -5319417#2 -5319417#3 -5319417#4 -5319417#5 -5319417#6 -5319418#2 -5319418#3 -5319419 -5320032#0 -5320032#1 -5320032#2 -5320033#1 -5320168 -5320171#4 -5320171#5 -589352201#0 -589352201#1 -589352201#2 -589352201#3 -647743345#0 -647743345#1 -66648398#3 -66648398#4 -74360362 -827438328#2 -832995794#1 -832995794#2 -832995794#3 -832995794#4 -832995794#5 -832995794#6 -832995794#7 -832995794#8 -832995794#9 -832995798#10 -832995798#11 -832995798#12 -832995798#13 -832995798#14 -832995798#15 -832995798#16 -832995798#2 -832995798#3 -832995798#5 -832995798#6 -832995798#7 -832995798#8 -832995798#9 -964332463#0 -964332463#1 -964332464#0 -964332464#1 -964332464#2 -964332465#0 -964332465#1 -964332467#0 -964332467#1 -964332467#2 -964332467#3 -964332470#0 -964332470#1 -964332470#2 158904780#0 158904780#1 158904780#2 158904780#3 158904780#4 158904780#5 158904780#6 158904780#7 237758609#0 237758609#1 246068964 246115495 5310497 5315914#0 5315914#1 5315914#2 5316208#0 5316209#0 5316209#1 5316209#2 5316381 5316396#0 5316396#1 5316655#0 5316655#1 5316707#0 5316707#1 5316838#0 5316838#1 5316838#2 5316838#3 5316838#4 5316846 5317702 5317703 5318006#0 5318006#1 5318006#2 5318006#3 5318120 5318928#2 5318928#3 5318931#0 5318931#1 5318931#2 5318931#3 5318931#5 5319048#0 5319048#1 5319048#2 5319048#3 5319048#4 5319152#0 5319152#2 5319152#3 5319417#0 5319417#1 5319417#2 5319417#3 5319417#4 5319417#5 5319417#6 5319418#2 5319418#3 5319419 5320032#0 5320032#1 5320032#2 5320033#1 5320168 5320171#4 5320171#5 589352200 589352201#0 589352201#1 589352201#2 589352201#3 647743345#0 647743345#1 66648398#3 66648398#4 832995794#1 832995794#2 832995794#3 832995794#4 832995794#5 832995794#6 832995794#7 832995794#8 832995794#9 832995798#10 832995798#11 832995798#12 832995798#13 832995798#14 832995798#15 832995798#16 832995798#2 832995798#3 832995798#5 832995798#6 832995798#7 832995798#8 832995798#9 964332463#0 964332463#1 964332464#0 964332464#1 964332464#2 964332465#0 964332465#1 964332467#0 964332467#1 964332467#2 964332467#3 964332470#0 964332470#1 964332470#2"/>
    <taz id="1_4" shape="501.0,3501.0 1499.0,3501.0 1499.0,4499.0 501.0,4499.0 501.0,3501.0" color="89,255,0" edges="-158904780#8 -158904780#9 -158904868#0 -158904868#1 -5315914#3 -5316108#0 -5316108#1 -5316108#2 -5316538 158904780#8 158904780#9 158904868#0 158904868#1 5315914#3 5316108#0 5316108#1 5316108#2 5316538"/>
    <taz id="2_0" shape="1501.0,-499.0 2499.0,-499.0 2499.0,499.0 1501.0,499.0 1501.0,-499.0" color="206,255,0" edges="-5320463#0 5320463#0 5320463#1"/>
    <taz id="2_1" shape="1501.0,501.0 2499.0,501.0 2499.0,1499.0 1501.0,1499.0 1501.0,501.0" color="168,255,0" edges="-158904846 -246109334 -5316890 -5317782#0 -5317782#1 -5317782#2 -5317782#3 -5317782#4 -5317787#0 -5317787#1 -5317787#2 -5317787#3 -5317787#4 -5317985 -5318481 -5318548 -5319482#0 -5319482#1 -5319482#10 -5319482#11 -5319482#12 -5319482#2 -5319482#3 -5319482#4 -5319482#6 -5319482#7 -5319482#8 -5319482#9 -5320025#0 -5320025#1 -5320025#2 -5320267#0 -5320270 -5320463#1 -5320463#2 -5320463#3 -5320463#4 -5320463#5 -5320463#6 -624107800#0 -624107800#1 -624107800#2 -624107800#3 -624107801 -846515561#0 -846515561#1 158904846 246109334 5316890 5317782#0 5317782#1 5317782#2 5317782#3 5317782#4 5317787#0 5317787#1 5317787#2 5317787#3 5317787#4 5317985 5318481 5318548 5319482#0 5319482#1 5319482#10 5319482#11 5319482#12 5319482#2 5319482#3 5319482#4 5319482#6 5319482#7 5319482#8 5319482#9 5320025#0 5320025#1 5320025#2 5320267#0 5320270 5320463#2 5320463#3 5320463#4 5320463#5 5320463#6 624107800#0 624107800#1 624107800#2 624107800#3 624107801 846515561#0 846515561#1"/>
    <taz id="2_2" shape="1501.0,1501.0 2499.0,1501.0 2499.0,2499.0 1501.0,2499.0 1501.0,1501.0" color="255,133,0" edges="-237758610#0 -237758610#1 -237758610#2 -237758610#3 -237758610#4 -237758610#5 -237758610#6 -237758610#7 -246086290#0 -246113572 -246113580 -246113589 -246115483#0 -246115483#1 -246115483#2 -369429841#10 -369429841#11 -369429841#9 -459066602#0 -459066602#1 -459066602#3 -5316063#1 -5316712#0 -5316748#0 -5317825#0 -5317825#1 -5317825#2 -5317825#3 -5317825#4 -5317888#0 -5317888#1 -5317944#6 -5318000#0 -5318000#1 -5318000#2 -5318041#0 -5318041#1 -5318041#2 -5318059#0 -5318440#2 -5318757#0 -5318757#1 -5318757#2 -5318757#3 -5318757#4 -5318757#5 -5318757#6 -5319607#0 -5319607#1 -5319609#0 -5319609#1 -5319609#2 -5319609#3 -5319914#0 -5319914#1 -5319932#0 -5319932#1 -5319997#0 -5319997#1 -5320021#1 -5320709 -624107797#1 -624107797#2 -624107797#3 -624107797#4 237758610#1 237758610#2 237758610#3 237758610#4 237758610#5 237758610#6 237758610#7 237758610#8 246086290#0 246113572 246113580 246113589 246115483#0 246115483#1 246115483#2 369429841#10 369429841#11 459066602#0 459066602#1 459066602#3 5316063#1 5316712#0 5316748#0 5317825#0 5317825#1 5317825#2 5317825#3 5317825#4 5317888#0 5317888#1 5317944#6 5318000#0 5318000#1 5318000#2 5318041#0 5318041#1 5318041#2 5318059#0 5318440#2 5318757#0 5318757#1 5318757#2 5318757#3 5318757#4 5318757#5 5318757#6 5319607#0 5319607#1 5319609#1 5319609#2 5319609#3 5319609#4 5319914#0 5319914#1 5319932#0 5319932#1 5319997#0 5319997#1 5320021#1 5320709 624107797#1 624107797#2 624107797#3 624107797#4 832995809"/>
    <taz id="2_3" shape="1501.0,2501.0 2499.0,2501.0 2499.0,3499.0 1501.0,3499.0 1501.0,2501.0" color="107,0,255" edges="-158904867 -234760864 -234760868#0 -237758606#0 -237758606#1 -246253795 -246264129#0 -246264129#1 -246264129#2 -246264129#3 -5316208#0 -5316208#1 -5316208#2 -5316208#3 -5316210#0 -5316210#1 -5316379#0 -5316379#1 -5316379#2 -5316379#3 -5316498#0 -5316653 -5317522 -5317551 -5317612#0 -5317612#1 -5317612#2 -5317701#0 -5317701#2 -5317917#1 -5317917#2 -5317917#3 -5317917#4 -5317944#10 -5317944#11 -5317944#12 -5317944#13 -5317944#14 -5317944#15 -5317944#16 -5317944#17 -5317944#18 -5317944#7 -5317944#8 -5317944#9 -5318004 -5318009 -5318117#0 -5318117#1 -5318117#2 -5318117#4 -5318289#0 -5318440#0 -5318440#1 -5318788 -5318857#0 -5318857#1 -5318857#2 -5318857#3 -5318928#0 -5318928#1 -5319151#0 -5319151#1 -5319151#2 -5319151#3 -5319151#4 -5319161#0 -5319161#2 -5319161#3 -5319161#5 -5319161#6 -5319161#7 -5319418#0 -5319418#1 -5320029 -5320031 -5320033#0 -5320171#0 -5320171#1 -5320171#2 -5320171#3 -5320364#2 -589352201#4 -589352201#5 -827438328#0 -827438328#1 -827438329 -827438331 -827438334#0 -827438334#1 -830855649#0 -830855649#1 -830855649#2 -830855649#3 -832995810#0 -832995810#1 -832995810#2 -832995810#3 158904867 234760864 234760868#0 234760868#1 237758606#1 246253795 246264129#0 246264129#1 246264129#2 246264129#3 5316208#1 5316208#2 5316208#3 5316210#0 5316210#1 5316379#0 5316379#1 5316379#2 5316379#3 5316498#0 5316653 5317522 5317551 5317612#0 5317612#1 5317612#2 5317701#0 5317701#2 5317917#1 5317917#2 5317917#3 5317917#4 5317944#10 5317944#11 5317944#12 5317944#13 5317944#14 5317944#15 5317944#16 5317944#17 5317944#18 5317944#7 5317944#8 5317944#9 5318004 5318009 5318117#0 5318117#1 5318117#2 5318117#4 5318289#0 5318440#0 5318440#1 5318788 5318857#0 5318857#1 5318857#2 5318857#3 5318928#0 5318928#1 5319151#0 5319151#1 5319151#2 5319151#3 5319151#4 5319151#5 5319161#0 5319161#2 5319161#3 5319161#5 5319161#6 5319161#7 5319418#0 5319418#1 5320029 5320031 5320033#0 5320171#0 5320171#1 5320171#2 5320171#3 5320364#2 589352201#4 589352201#5 827438328#0 827438328#1 827438328#2 827438329 827438331 827438334#0 827438334#1 830855649#0 830855649#1 830855649#2 830855649#3 832995810#0 832995810#1 832995810#2 832995810#3"/>
    <taz id="2_4" shape="1501.0,3501.0 2499.0,3501.0 2499.0,4499.0 1501.0,4499.0 1501.0,3501.0" color="0,247,255" edges="-5316106#0 -5316106#1 -5318857#4 -5318857#5 -5319473 -589352201#10 -589352201#6 -589352201#7 -589352201#8 -589352201#9 -830855649#4 -830855649#5 -830855649#6 -830855649#7 5316106#0 5316106#1 5318857#4 5318857#5 5319473 589352201#10 589352201#6 589352201#7 589352201#8 589352201#9 830855649#4 830855649#5 830855649#6 830855649#7"/>
    <taz id="3_1" shape="2501.0,501.0 3499.0,501.0 3499.0,1499.0 2501.0,1499.0 2501.0,501.0" color="0,26,255" edges="-870804866#1 870804866#1"/>
    <taz id="3_2" shape="2501.0,1501.0 3499.0,1501.0 3499.0,2499.0 2501.0,2499.0 2501.0,1501.0" color="175,255,0" edges="-5316063#0 -5316136#0 -5316136#1 -5316137 -5316498#2 -5316498#3 -5316712#1 -5316748#1 -5318059#1 -870804866#0 5316063#0 5316136#0 5316136#1 5316136#2 5316498#2 5316498#3 5316712#1 5316748#1 5318059#1 870804866#0"/>
    <taz id="3_3" shape="2501.0,2501.0 3499.0,2501.0 3499.0,3499.0 2501.0,3499.0 2501.0,2501.0" color="255,46,0" edges="-5308996 -5316498#1 -5317917#0 -5318289#1 -5318297 -5318299 -5320364#0 -5320364#1 5308996 5316498#1 5317917#0 5318289#1 5318297 5318299 5320364#0 5320364#1"/>
</tazs>
